15
0 1
S 0.6918310000 -1.3042470000 0.0000000000
C -0.4862070000 -1.3874750000 1.3609410000
C -0.4862070000 -1.3874750000 -1.3609410000
H -1.0353400000 -2.3261360000 1.3322610000
H 0.0806050000 -1.3382050000 2.2873190000
H -1.1753490000 -0.5466250000 1.3193820000
H -1.0353400000 -2.3261360000 -1.3322610000
H -1.1753490000 -0.5466250000 -1.3193820000
H 0.0806050000 -1.3382050000 -2.2873190000
O -0.4319550000 1.7777780000 0.0000000000
C 0.3110980000 2.9828270000 0.0000000000
H -0.4030020000 3.8015740000 0.0000000000
H 0.9414150000 3.0823790000 0.8861880000
H 0.9414150000 3.0823790000 -0.8861880000
H 0.2009850000 1.0461610000 0.0000000000
