9
0 1
S 0.0000000000 0.0000000000 -1.6398620000
C 0.0000000000 -1.3574440000 -2.8229620000
C 0.0000000000 1.3574440000 -2.8229620000
H -0.8897120000 1.3302590000 -3.4497800000
H 0.0000000000 2.2842550000 -2.2540480000
H 0.8897120000 1.3302590000 -3.4497800000
H 0.8897120000 -1.3302590000 -3.4497800000
H 0.0000000000 -2.2842550000 -2.2540480000
H -0.8897120000 -1.3302590000 -3.4497800000
