12
0 1
C 0.0000000000 1.3929950000 1.8670310000
C -1.2070160000 0.6964890000 1.8677220000
C -1.2070160000 -0.6964890000 1.8677220000
C 0.0000000000 -1.3929950000 1.8670310000
C 1.2070160000 -0.6964890000 1.8677220000
C 1.2070160000 0.6964890000 1.8677220000
H -2.1437280000 1.2369970000 1.8646660000
H -2.1437280000 -1.2369970000 1.8646660000
H 0.0000000000 -2.4747470000 1.8670300000
H 2.1437280000 -1.2369970000 1.8646660000
H 2.1437280000 1.2369970000 1.8646660000
H 0.0000000000 2.4747470000 1.8670300000
