12
0 1
C 0.6042080000 -1.5729650000 -1.2075260000
C -0.7483480000 -1.2351230000 -1.2073750000
C -1.4249580000 -1.0681490000 0.0000000000
C -0.7483480000 -1.2351230000 1.2073750000
C 0.6042080000 -1.5729650000 1.2075260000
C 1.2801620000 -1.7434440000 0.0000000000
H -1.2721630000 -1.1031220000 -2.1442860000
H -2.4751440000 -0.8093550000 0.0000000000
H -1.2721630000 -1.1031220000 2.1442860000
H 1.1295670000 -1.6999830000 2.1440450000
H 2.3296260000 -2.0042170000 0.0000000000
H 1.1295670000 -1.6999830000 -2.1440450000
