12
0 1
C -0.9839540000 1.7687210000 0.7165230000
S 0.4230290000 1.8128990000 -0.4223740000
H -1.4174060000 0.7779110000 0.6086580000
H -1.7278770000 2.5135260000 0.4523240000
H -0.6632310000 1.9053160000 1.7446430000
H 0.8287540000 3.0491710000 -0.1322480000
C 0.8968020000 -1.7904140000 0.8000790000
S -0.4304470000 -1.9113300000 -0.4264670000
H 0.5306840000 -2.2848040000 1.6958620000
H 1.1207990000 -0.7530080000 1.0293950000
H 1.7928230000 -2.3007820000 0.4611950000
H 0.1770210000 -1.2011730000 -1.3774990000
