10
0 1
C -1.1512510000 1.4886260000 0.0565430000
S 0.6512150000 1.3373110000 -0.0317350000
H -1.3600670000 2.3743760000 0.6500970000
H -1.5975520000 0.6272840000 0.5442690000
H -1.5827660000 1.6189910000 -0.9306930000
H 0.6584340000 0.2138020000 -0.7527070000
C 0.1114100000 -2.2827700000 0.5613720000
O -0.0891840000 -2.0900520000 -0.6190560000
H -0.0551820000 -3.2681530000 1.0206450000
H 0.4685120000 -1.4801040000 1.2232850000
