10
0 1
S 0.6884700000 0.9277630000 0.0000000000
C -1.0479140000 1.4416290000 0.0000000000
H 0.4486240000 -0.3898520000 0.0000000000
H -1.5632010000 1.0916860000 0.8894020000
H -1.0544590000 2.5282110000 0.0000000000
H -1.5632010000 1.0916860000 -0.8894020000
N -0.0868710000 -2.6648650000 0.0000000000
H 0.3339750000 -3.1050980000 -0.8081040000
H 0.3339750000 -3.1050980000 0.8081040000
H -1.0568590000 -2.9528250000 0.0000000000
