8
0 1
S 0.0802990000 1.3332400000 0.0259220000
H -0.6293810000 2.4611030000 0.0075090000
H -1.0151740000 0.5780390000 -0.0415820000
C 0.0327040000 -2.4379380000 0.0010430000
H -1.0505020000 -2.4321360000 -0.0762580000
H 0.3847630000 -3.4644150000 0.0231360000
H 0.4612890000 -1.9274350000 -0.8558760000
H 0.3350640000 -1.9326920000 0.9131390000
