10
0 2
C 1.2084396621 -0.2871892349 0.0000569998
C -0.0653592065 0.5761311047 -0.0000569998
C -1.3147884062 -0.2395183059 -0.0000110000
H 1.2413703600 -0.9283937904 0.8812335174
H 1.2413968188 -0.9285842942 -0.8809795123
H 2.1018707142 0.3387273910 0.0000000000
H -0.0482180454 1.2268497373 -0.8770900598
H -0.0482720214 1.2270349493 0.8768360548
H -1.7291447458 -0.6157717696 0.9244355449
H -1.7287637382 -0.6164173658 -0.9243667518
