10
0 2
C -0.4721324367 0.6459348706 -0.0000430000
C -1.3826183411 -0.3638850048 -0.0000020000
H -0.2320442069 1.1645761631 -0.9172651937
H -0.2323421337 1.1647613751 0.9171699418
H -1.7271285806 -0.8098104692 0.9225199234
H -1.7269380768 -0.8101332673 -0.9224352550
C 1.6120166619 -0.2421890632 0.0000350000
H 2.1951805318 0.6686736153 -0.0012689987
H 1.5894260868 -0.8096199654 -0.9186304709
H 1.5902463115 -0.8075985085 0.9199692892
