7
-1 1
F 1.8990529646 -0.0764571109 -0.0054040106
C 0.4894132476 0.1054840685 0.0067680178
H 0.0013039985 -0.7861668315 -0.3611549795
H 0.1719429052 0.2983580491 1.0232435137
H 0.2497441263 0.9474706288 -0.6308850707
O -2.1694466440 -0.0731428741 -0.0023200029
H -3.0953691769 0.1806970838 -0.0046240034
