11
0 1
C -0.2758990000 -0.0923620000 -0.2280940000
C 2.4155710000 -0.0687570000 0.5040780000
H 3.1762590000 0.6483340000 0.1662000000
O 2.1482690000 -1.0513940000 -0.1699130000
N 0.0444850000 -1.2863700000 -0.1773860000
S 0.1652540000 1.4992280000 -0.1795520000
C -1.8763750000 -0.5492800000 -0.4083410000
H 1.9909110000 0.0868210000 1.5014700000
H -2.0413820000 -1.6040920000 -0.5942170000
F -2.5215110000 -0.1680670000 0.7168810000
H -2.1535790000 0.0720270000 -1.2574020000
