14
0 1
C 1.1980220000 -0.1393580000 -0.0335610000
C -1.8131490000 -0.2995870000 0.3272820000
O -1.2794830000 -1.0609430000 -0.4573680000
N 0.7492910000 -1.3003060000 -0.0683450000
S 0.8861210000 1.4912500000 -0.1172840000
C 2.7111540000 -0.7053620000 0.2200930000
H 3.2620810000 -0.2957390000 -0.6205070000
H 2.9893830000 -0.2553100000 1.1672520000
H 2.8258280000 -1.7844000000 0.2589630000
H -1.3013130000 -0.0185580000 1.2569120000
C -3.1712840000 0.2754610000 0.1070820000
H -3.8202560000 -0.0074000000 0.9397970000
H -3.0953660000 1.3650040000 0.1210220000
H -3.5959140000 -0.0608390000 -0.8349090000
