12
0 1
C -0.9911610000 -0.1858020000 -0.0380080000
C 1.8575590000 -0.0270160000 -0.2691520000
O 1.3313430000 -0.9797620000 -0.8165180000
N -0.4995320000 -1.3331940000 -0.0979120000
S -0.6433000000 1.4372550000 -0.2312960000
C -2.4562970000 -0.6711870000 0.4005720000
H -2.6347990000 -0.1857680000 1.3546990000
H -3.1121430000 -0.2946150000 -0.3782460000
H -2.5662700000 -1.7467440000 0.4969910000
H 2.3129780000 0.7858140000 -0.8414440000
O 2.0384370000 0.0060140000 1.0506030000
H 2.3709130000 0.8715990000 1.3209750000
