11
0 1
C 1.0861600000 0.1831570000 0.0161150000
C -1.3497360000 -0.0243430000 -0.2907710000
O -0.8088780000 1.2366300000 -0.4786260000
N 0.5479120000 1.3338590000 -0.0809170000
S 0.0371380000 -1.1971510000 -0.3089650000
C 2.5220720000 0.0147140000 0.3809150000
H 2.6186150000 -0.5205820000 1.3258090000
H 3.0466050000 -0.5592910000 -0.3841300000
H 2.9875810000 0.9927800000 0.4743780000
H -2.0879440000 -0.2201320000 -1.0636970000
F -2.0082670000 -0.0899530000 0.9276610000
