11
0 1
C -1.0089750000 -0.1610180000 -0.0280480000
C 1.7716840000 -0.0653360000 -0.2917820000
O 1.2793900000 -1.0941110000 -0.6906960000
N -0.6389900000 -1.3486860000 -0.0435200000
S -0.4627180000 1.3995540000 -0.2353600000
C -2.5387690000 -0.4848360000 0.3496500000
H -2.7059130000 0.0376360000 1.2859140000
H -3.1148070000 -0.0648240000 -0.4687880000
H -2.7577230000 -1.5414510000 0.4614010000
H 2.2484440000 0.6908660000 -0.9101860000
F 2.0697390000 0.1050820000 1.0054130000
