17
0 1
C -1.4669790000 -0.1796810000 -0.1229740000
C 1.9000970000 -0.2036360000 -0.0101060000
O 1.0943000000 -0.6287270000 -0.8232480000
N -0.8007410000 -1.2270660000 -0.2380790000
S -1.4786900000 1.4795130000 -0.1415080000
C -2.8262620000 -1.0335690000 0.1831960000
H -3.1365920000 -0.6694890000 1.1570270000
H -3.4942970000 -0.7198410000 -0.6123980000
H -2.7295800000 -2.1151520000 0.1908870000
C 1.5595470000 -0.0235910000 1.4395720000
H 2.4428570000 0.1319420000 2.0543650000
H 0.9078010000 0.8525360000 1.5119750000
H 0.9894210000 -0.8795600000 1.7954840000
C 3.2774130000 0.1873970000 -0.4709950000
H 3.4743140000 1.2233330000 -0.1866150000
H 4.0205220000 -0.4288220000 0.0402530000
H 3.3724950000 0.0706000000 -1.5464610000
