8
0 1
C 1.0670700000 -0.3707980000 0.0203240000
C -1.1157700000 -0.2391350000 0.0818600000
O -0.5375810000 1.0476190000 -0.0910200000
N 0.8796290000 0.8825180000 0.0468300000
H -1.5250960000 -0.3541030000 1.0922990000
H -1.8688070000 -0.4165430000 -0.6838620000
H 2.0352290000 -0.8416620000 0.0533630000
O -0.0257360000 -1.1608350000 -0.0843190000
