10
0 1
C 0.0000000000 1.1071930000 0.0000000000
C -0.4691930000 -1.7262040000 0.0000000000
O -1.4219260000 -0.9993630000 0.0000000000
N -1.2424250000 0.9576370000 0.0000000000
S 1.3391590000 0.1109700000 0.0000000000
C 0.0597860000 2.6819730000 0.0000000000
H 0.6041100000 2.9524400000 0.9003970000
H 0.6041100000 2.9524400000 -0.9003970000
H -0.9183720000 3.1562470000 0.0000000000
O 0.1015550000 -2.7403710000 0.0000000000
