11
0 1
C -0.7197550000 0.1997690000 -0.0660790000
C 2.1179780000 0.2568740000 0.3173260000
O 1.6738190000 -0.6837530000 -0.3059300000
N -0.2659070000 -0.9881620000 0.0266050000
C -2.2549340000 -0.2832500000 0.1290530000
H -2.5811640000 0.2720240000 1.0049300000
H -2.7344050000 0.0646460000 -0.7828060000
H -2.4336000000 -1.3443900000 0.2647060000
H 1.6144270000 0.6667370000 1.1968950000
H 3.0710480000 0.7088460000 0.0089140000
O -0.4156560000 1.3723670000 -0.2141540000
