14
0 1
C -0.1874010000 -0.0078950000 -0.2731370000
C 2.3087800000 0.5260840000 0.3596000000
H 2.9680040000 1.2018660000 -0.2002390000
O 2.2105340000 -0.6461290000 0.0307860000
N 0.2479590000 -1.1290050000 0.1125970000
C -1.7349220000 -0.5242700000 -0.3778420000
H 1.8282510000 0.9218480000 1.2593560000
H -1.8636580000 -1.5816870000 -0.1688650000
C -2.5771350000 0.3469120000 0.5356270000
H -2.3464900000 0.1568500000 1.5836650000
H -2.4185950000 1.4029130000 0.3274530000
H -3.6316060000 0.1119690000 0.3774970000
H -1.9185250000 -0.3619780000 -1.4402790000
O 0.1383380000 1.1469120000 -0.5298180000
