11
0 1
C -0.2723400000 0.1382720000 -0.3462450000
C 2.4514310000 0.3258290000 0.5307400000
H 3.4554730000 0.7552850000 0.4167570000
O 2.1395490000 -0.6361650000 -0.1398740000
N 0.2258810000 -1.0078520000 -0.0924730000
C -1.8085040000 -0.4246930000 -0.3251050000
H 1.7716280000 0.7744720000 1.2595800000
H -1.9361780000 -1.5007820000 -0.2883350000
F -2.4208670000 0.1508630000 0.7555640000
H -2.2013990000 0.0000800000 -1.2501600000
O -0.0278510000 1.3151260000 -0.5409930000
