14
0 1
C 1.2707970000 0.2322180000 -0.0826420000
C -1.6343280000 -0.0949750000 0.3216820000
O -1.0408120000 -0.8952570000 -0.3769320000
N 0.9252850000 -0.9901080000 0.0026870000
C 2.8352430000 -0.1289470000 0.1996170000
H 3.3292000000 0.2561890000 -0.6892220000
H 3.0648370000 0.4570560000 1.0860660000
H 3.0990310000 -1.1694160000 0.3539010000
H -1.1301010000 0.3612700000 1.1827120000
C -3.0457740000 0.3075250000 0.0687860000
H -3.6428770000 0.1153690000 0.9635540000
H -3.0718890000 1.3871440000 -0.1005170000
H -3.4617440000 -0.2169570000 -0.7871240000
O 0.8884270000 1.3759040000 -0.2571720000
