11
0 1
C -1.1792100000 -0.1914540000 -0.0410070000
C 1.5725020000 0.0310660000 0.3219140000
O 1.0476610000 0.9698740000 -0.2156890000
N -0.8378040000 1.0491900000 0.0502190000
C -2.7431310000 0.0128230000 0.0479780000
H -3.0565070000 -0.5790770000 0.9049990000
H -3.0764660000 1.0403350000 0.1617280000
H -3.1272370000 -0.3989130000 -0.8829150000
H 1.2116950000 -0.5352000000 1.1734650000
F 2.7614550000 -0.3759810000 -0.0856540000
O -0.6527760000 -1.2951560000 -0.1482160000
