17
0 1
C 1.5605010000 0.0585480000 -0.2712620000
C -1.6390430000 -0.1130740000 0.1039760000
O -0.8376890000 -1.0012010000 -0.1512150000
N 1.0813190000 -0.8814660000 0.4380100000
C 3.0626610000 -0.1849960000 0.3338520000
H 3.6409490000 -0.3997690000 -0.5614080000
H 3.3108560000 0.7836830000 0.7602600000
H 3.2020490000 -0.9706850000 1.0677570000
C -3.0646480000 -0.2628590000 -0.3498430000
H -3.7234530000 -0.2684310000 0.5215410000
H -3.3464090000 0.6019300000 -0.9543410000
H -3.1950200000 -1.1774100000 -0.9207400000
C -1.2535760000 1.1364100000 0.8354070000
H -0.6692200000 1.7504430000 0.1442860000
H -2.1206110000 1.6961760000 1.1776110000
H -0.6017020000 0.8861600000 1.6707980000
O 1.3299340000 0.9342010000 -1.0843630000
