8
0 1
O 9.2399550000 15.4081120000 2.8384850000
C 8.8953800000 15.3127460000 1.6808370000
H 8.2180330000 14.5119740000 1.3497610000
H 9.2440630000 16.0118600000 0.9096980000
O 9.2399550000 15.4081120000 7.3124850000
C 8.8953800000 15.3127460000 6.1548370000
H 8.2180330000 14.5119740000 5.8237610000
H 9.2440630000 16.0118600000 5.3836980000
