8
0 1
O 10.8151880000 9.2399550000 6.1095150000
C 10.9105540000 8.8953800000 7.2671630000
H 11.7113260000 8.2180330000 7.5982390000
H 10.2114400000 9.2440630000 8.0383020000
O 9.2399550000 6.6670120000 7.3124850000
C 8.8953800000 6.5716460000 6.1548370000
H 8.2180330000 5.7708740000 5.8237610000
H 9.2440630000 7.2707600000 5.3836980000
