10
0 1
O 0.9290230000 6.1896920000 13.2378020000
H 1.7832260000 5.6924130000 13.2567600000
C 1.1433960000 7.4447740000 12.5784990000
H 1.7713110000 8.0925020000 13.1947530000
H 0.1738810000 7.9215010000 12.4465860000
H 1.6119020000 7.3167060000 11.6007350000
C 0.7792910000 3.9178900000 17.3498900000
H 0.1282310000 3.2901300000 17.9226990000
C 1.5139820000 4.6368570000 16.7306090000
H 2.1546800000 5.2880950000 16.1820230000
