12
0 1
O 3.2115230000 4.7813080000 13.0921980000
H 4.0657260000 5.2785870000 13.0732400000
C 3.4258960000 3.5262260000 13.7515010000
H 4.0538110000 2.8784980000 13.1352470000
H 2.4563810000 3.0494990000 13.8834140000
H 3.8944020000 3.6542940000 14.7292650000
O 0.9290230000 6.1896920000 13.2378020000
H 1.7832260000 5.6924130000 13.2567600000
C 1.1433960000 7.4447740000 12.5784990000
H 1.7713110000 8.0925020000 13.1947530000
H 0.1738810000 7.9215010000 12.4465860000
H 1.6119020000 7.3167060000 11.6007350000
