12
0 1
C 4.1046050000 12.0302860000 1.9447220000
C 4.8350200000 11.1705370000 2.8593540000
N 5.4086010000 10.4929760000 3.5936980000
H 3.4786010000 11.4253360000 1.2872980000
H 4.8007050000 12.6176220000 1.3453020000
H 3.4745470000 12.7095010000 2.5188690000
C 6.7848520000 12.7797140000 5.9041780000
C 6.0544370000 13.6394630000 4.9895460000
N 5.4808560000 14.3170240000 4.2552030000
H 7.4108560000 13.3846640000 6.5616020000
H 6.0887520000 12.1923780000 6.5035990000
H 7.4149110000 12.1004990000 5.3300310000
