14
0 1
C 3.2838160000 8.9778500000 13.8419950000
N 4.4611220000 9.8934410000 13.8348490000
O 5.2525610000 9.8209670000 12.8995040000
O 4.5668960000 10.6941470000 14.7508830000
H 3.0697270000 8.7384740000 14.8754250000
H 2.4563940000 9.5337530000 13.4050750000
H 3.5193710000 8.1096590000 13.2412310000
C 4.4936840000 9.7331500000 9.5884950000
N 3.3163780000 8.8175590000 9.5813490000
O 2.5249390000 8.8900330000 8.6460040000
O 3.2106040000 8.0168530000 10.4973830000
H 4.7077730000 9.9725260000 10.6219250000
H 5.3211060000 9.1772470000 9.1515750000
H 4.2581290000 10.6013410000 8.9877310000
