14
0 1
C 0.6913160000 6.6146500000 11.6790050000
N 1.8686220000 5.6990590000 11.6861510000
O 2.6600610000 5.7715330000 12.6214960000
O 1.9743960000 4.8983530000 10.7701170000
H 0.4772270000 6.8540260000 10.6455750000
H -0.1361060000 6.0587470000 12.1159250000
H 0.9268710000 7.4828410000 12.2797690000
C 4.4936840000 3.4961500000 9.5884950000
N 3.3163780000 2.5805590000 9.5813490000
O 2.5249390000 2.6530330000 8.6460040000
O 3.2106040000 1.7798530000 10.4973830000
H 4.7077730000 3.7355260000 10.6219250000
H 5.3211060000 2.9402470000 9.1515750000
H 4.2581290000 4.3643410000 8.9877310000
