16
0 1
C -1.5997140000 6.0251050000 4.8975910000
H -0.0991270000 5.3786730000 5.8506280000
O -0.9679310000 6.6446500000 4.0614930000
O -1.0982970000 5.3407790000 5.8883040000
C -3.1372430000 6.0048950000 4.8881960000
O -3.7690260000 5.3853500000 5.7242940000
O -3.6386600000 6.6892210000 3.8974830000
H -4.6378300000 6.6513270000 3.9351580000
C -1.9530030000 3.0176050000 2.4417500000
H -3.4535910000 2.3711730000 1.4887120000
O -2.5847870000 3.6371500000 3.2778470000
O -2.4544200000 2.3332790000 1.4510360000
C -0.4154750000 2.9973950000 2.4511440000
O 0.2163080000 2.3778500000 1.6150460000
O 0.0859420000 3.6817210000 3.4418570000
H 1.0851120000 3.6438270000 3.4041820000
