16
0 1
C 1.2925720000 10.0342110000 3.1766300000
C 0.6739090000 9.4380300000 2.1709860000
C 1.2063680000 7.8711440000 3.6459840000
H 1.5542410000 11.0507030000 3.3987710000
H 0.2483720000 9.7727820000 1.2459020000
O 1.6288950000 9.0655100000 4.1230950000
O 0.5932190000 8.0734930000 2.4547650000
O 1.3558240000 6.8077040000 4.1779680000
C 1.2925720000 20.5842110000 3.1766300000
C 0.6739090000 19.9880300000 2.1709860000
C 1.2063680000 18.4211440000 3.6459840000
H 1.5542410000 21.6007030000 3.3987710000
H 0.2483720000 20.3227820000 1.2459020000
O 1.6288950000 19.6155100000 4.1230950000
O 0.5932190000 18.6234930000 2.4547650000
O 1.3558240000 17.3577040000 4.1779680000
