8
0 1
C 6.6144260000 15.3092110000 6.2842420000
C 7.2330890000 14.7130300000 7.2898860000
C 6.7006300000 13.1461440000 5.8148890000
H 6.3527570000 16.3257030000 6.0621010000
H 7.6586270000 15.0477820000 8.2149700000
O 6.2781040000 14.3405100000 5.3377770000
O 7.3137800000 13.3484930000 7.0061070000
O 6.5511750000 12.0827040000 5.2829040000
