16
0 1
C 0.8459270000 15.3092110000 1.5538060000
C 1.4645900000 14.7130300000 2.5594500000
C 0.9321310000 13.1461440000 1.0844520000
H 0.5842580000 16.3257030000 1.3316650000
H 1.8901280000 15.0477820000 3.4845340000
O 0.5096040000 14.3405100000 0.6073410000
O 1.5452810000 13.3484930000 2.2756710000
O 0.7826760000 12.0827040000 0.5524680000
C 2.9844260000 11.0657900000 6.2842420000
C 3.6030890000 11.6619700000 7.2898860000
C 3.0706300000 13.2288560000 5.8148890000
H 2.7227570000 10.0492970000 6.0621010000
H 4.0286270000 11.3272180000 8.2149700000
O 2.6481040000 12.0344910000 5.3377770000
O 3.6837800000 13.0265070000 7.0061070000
O 2.9211750000 14.2922960000 5.2829040000
