18
0 1
C 13.7421340000 0.1387360000 9.0665570000
C 15.2502860000 0.0580890000 9.0941030000
O 15.8470660000 -0.8987320000 8.5567640000
N 15.8952170000 1.0230700000 9.7485010000
H 16.8915740000 0.9366830000 9.9590270000
H 15.3733080000 1.7938140000 10.1712720000
H 13.3646790000 -0.3448490000 9.9697700000
H 13.3784690000 1.1641280000 9.0584350000
H 13.3527270000 -0.3935500000 8.2037810000
C 12.4969180000 4.6168680000 11.2152240000
C 13.3208370000 3.3510940000 11.2427690000
O 14.4478570000 3.3126780000 10.7054310000
N 12.8076040000 2.3100760000 11.8971670000
H 13.3805950000 1.4904000000 12.1076940000
H 11.8791650000 2.3766910000 12.3199390000
H 12.7269880000 5.1855470000 12.1184370000
H 11.4270700000 4.4191150000 11.2071020000
H 12.7631880000 5.2202470000 10.3524480000
