9
0 1
O 5.6797030000 14.9706360000 4.5480030000
N 4.3735840000 15.3498770000 4.2085390000
C 3.7006570000 14.2249720000 4.0677510000
O 2.4232750000 14.1918870000 3.7134090000
C 4.5153310000 13.0892530000 4.3333850000
C 5.7196340000 13.6278330000 4.6189280000
H 2.1174950000 15.1057020000 3.4185120000
H 4.2380660000 12.0513480000 4.2954070000
H 6.6755950000 13.2115010000 4.8767670000
