9
0 1
O 0.4923540000 9.0623640000 2.5374380000
N 1.7984730000 8.6831230000 2.8769010000
C 2.4714000000 9.8080280000 3.0176890000
O 3.7487820000 9.8411130000 3.3720320000
C 1.6567260000 10.9437470000 2.7520560000
C 0.4524230000 10.4051670000 2.4665130000
H 4.0545620000 8.9272980000 3.6669280000
H 1.9339910000 11.9816520000 2.7900340000
H -0.5035370000 10.8214990000 2.2086740000
