18
0 1
O 0.4923540000 9.0623640000 2.5374380000
N 1.7984730000 8.6831230000 2.8769010000
C 2.4714000000 9.8080280000 3.0176890000
O 3.7487820000 9.8411130000 3.3720320000
C 1.6567260000 10.9437470000 2.7520560000
C 0.4524230000 10.4051670000 2.4665130000
H 4.0545620000 8.9272980000 3.6669280000
H 1.9339910000 11.9816520000 2.7900340000
H -0.5035370000 10.8214990000 2.2086740000
O 6.7089320000 2.9541360000 6.0801580000
N 8.0150520000 3.3333770000 6.4196220000
C 8.6879790000 2.2084720000 6.5604090000
O 9.9653610000 2.1753870000 6.9147520000
C 7.8733040000 1.0727530000 6.2947760000
C 6.6690010000 1.6113330000 6.0092330000
H 10.2711410000 3.0892020000 7.2096480000
H 8.1505690000 0.0348480000 6.3327540000
H 5.7130410000 1.1950010000 5.7513940000
