18
0 1
C 10.6270160000 5.5790020000 5.9690450000
C 11.4760740000 4.8438620000 6.8114030000
C 10.6882780000 3.8171850000 7.2950630000
H 8.6293120000 3.3640170000 6.8435750000
H 10.9175160000 3.0111750000 7.9676890000
H 12.5100610000 5.0343190000 7.0316610000
H 10.8406120000 6.4586510000 5.3864310000
N 9.4613340000 3.9727730000 6.7574220000
N 9.4049050000 5.0437600000 5.9366700000
C 5.9223530000 2.3489210000 6.2619770000
C 5.0488070000 1.3772530000 6.7738130000
C 5.8018780000 0.6782410000 7.6957540000
H 7.8376660000 1.0373770000 8.3137220000
H 5.5545400000 -0.1416150000 8.3456230000
H 4.0200610000 1.2105880000 6.5142710000
H 5.7223530000 3.1023130000 5.5204690000
N 7.0335720000 1.2292180000 7.6963630000
N 7.1274290000 2.2567770000 6.8269130000
