9
0 1
C 5.9223530000 3.9450790000 2.8754770000
C 5.0488070000 4.9167470000 3.3873130000
C 5.8018780000 5.6157590000 4.3092540000
H 7.8376660000 5.2566230000 4.9272220000
H 5.5545400000 6.4356150000 4.9591230000
H 4.0200610000 5.0834120000 3.1277710000
H 5.7223530000 3.1916870000 2.1339690000
N 7.0335720000 5.0647820000 4.3098630000
N 7.1274290000 4.0372230000 3.4404130000
