18
0 1
C 14.7220160000 11.8730020000 10.9634500000
C 15.5710740000 11.1378620000 10.1211000000
C 14.7832780000 10.1111850000 9.6374400000
H 12.7243120000 9.6580170000 10.0889200000
H 15.0125160000 9.3051750000 8.9648100000
H 16.6050610000 11.3283190000 9.9008400000
H 14.9356120000 12.7526510000 11.5460700000
N 13.5563340000 10.2667730000 10.1750800000
N 13.4999050000 11.3377600000 10.9958300000
C 10.0173530000 8.6429210000 17.4435200000
C 9.1438070000 7.6712530000 16.9316900000
C 9.8968780000 6.9722410000 16.0097500000
H 11.9326660000 7.3313770000 15.3917800000
H 9.6495400000 6.1523850000 15.3598800000
H 8.1150620000 7.5045880000 17.1912300000
H 9.8173530000 9.3963130000 18.1850300000
N 11.1285720000 7.5232180000 16.0091400000
N 11.2224290000 8.5507770000 16.8785900000
