9
0 1
C -3.5234700000 8.3545470000 9.1012500000
N -4.1396240000 7.1700390000 9.1012500000
H -2.4413660000 8.3545470000 9.1012500000
C -5.4735150000 9.4804060000 9.1012500000
N -4.1396240000 9.5390550000 9.1012500000
H -6.0145670000 10.4175350000 9.1012500000
C -5.4735150000 7.2286880000 9.1012500000
N -6.1912520000 8.3545470000 9.1012500000
H -6.0145670000 6.2915590000 9.1012500000
