10
0 1
C 2.7125080000 3.3294890000 6.3681380000
C 2.8395690000 0.8574170000 6.4231380000
C 2.1995760000 1.9991030000 5.7995310000
H 2.3518140000 1.9347120000 4.7216860000
H 1.1216420000 1.9177670000 5.9573360000
H 2.5237510000 5.3355060000 6.1129560000
H 1.5868880000 4.3487650000 4.9872340000
N 2.2037270000 4.4204760000 5.7886010000
N 3.3444480000 -0.0504280000 6.9156630000
O 3.5049030000 3.3559230000 7.3131380000
