10
0 1
C 5.6756960000 2.5807910000 9.9220770000
C 5.2946880000 1.4281250000 9.1310050000
C 5.7301660000 0.1102100000 9.7838740000
H 4.2203140000 1.4618790000 8.9545140000
H 5.7805910000 1.5081050000 8.1550500000
H 5.5080590000 -1.8951290000 9.5798130000
H 4.5593080000 -0.9260100000 8.4552190000
N 5.9837030000 3.4954150000 10.5464600000
N 5.1602000000 -0.9851150000 9.2699130000
O 6.5546060000 0.0928590000 10.7001050000
