20
0 1
N 3.4119280000 12.1471500000 3.3055780000
N 2.9535570000 11.1444790000 4.1786840000
C 3.3674770000 11.4628800000 5.4423430000
N 3.8907350000 12.7358140000 5.3565880000
C 3.9138610000 13.1674190000 4.0471480000
O 3.2792470000 10.7864100000 6.4626450000
O 4.3141260000 14.2602720000 3.6410430000
H 2.8596330000 12.3535820000 2.4637960000
H 3.0062950000 10.1804320000 3.8501190000
H 4.3075090000 13.2481840000 6.1493040000
N 1.1960540000 11.6353500000 8.7816540000
N 0.7376840000 12.6380200000 9.6547590000
C 1.1516030000 12.3196200000 10.9184190000
N 1.6748610000 11.0466860000 10.8326630000
C 1.6979880000 10.6150810000 9.5232240000
O 1.0633730000 12.9960900000 11.9387210000
O 2.0982520000 9.5222280000 9.1171180000
H 0.6437590000 11.4289180000 7.9398720000
H 0.7904220000 13.6020680000 9.3261950000
H 2.0916360000 10.5343160000 11.6253800000
