11
0 1
N 10.5234190000 6.5075550000 3.9681550000
O 11.5327580000 5.0126060000 5.2513710000
O 10.8573100000 4.3437590000 3.2128490000
C 10.9167500000 7.2992790000 5.1266070000
C 11.3571160000 6.1870870000 6.0937120000
C 10.9429110000 5.2362360000 4.0484670000
H 10.1204730000 6.8882700000 3.1085370000
H 11.7209470000 7.9902500000 4.8784810000
H 10.0777460000 7.8694150000 5.5215360000
H 10.5948980000 5.9476300000 6.8336090000
H 12.3006650000 6.3877980000 6.5878170000
