11
0 1
O 8.2837010000 1.2475600000 10.2206550000
O 7.4200890000 1.8002740000 8.2261520000
O 8.6656710000 0.4478370000 12.2762820000
C 7.3089330000 1.1667940000 9.2339830000
C 6.2201240000 0.2254300000 9.6726610000
C 6.6473840000 -0.2475720000 11.0605140000
C 7.9484350000 0.4655510000 11.3181730000
H 5.2723560000 0.7613430000 9.6800660000
H 6.1275300000 -0.5700060000 8.9367110000
H 6.8198890000 -1.3210870000 11.1236360000
H 5.9381510000 0.0172220000 11.8433640000
