12
0 1
C 5.7390470000 10.8457380000 6.2032010000
O 5.2353400000 10.1354320000 5.2203140000
H 5.3422860000 9.1361680000 5.3731680000
O 5.6349840000 12.0682490000 6.1627200000
C 6.4308020000 10.2072030000 7.3602750000
H 6.8266550000 10.9465470000 8.0440890000
C 6.6340720000 8.9239960000 7.6817740000
H 7.1797440000 8.7200570000 8.5947010000
C 6.1941490000 7.7140580000 6.9453010000
O 6.5620860000 6.6062760000 7.5354700000
H 6.2092470000 5.7974810000 7.0490240000
O 5.5441020000 7.7291010000 5.8973240000
