24
0 1
C -1.6475530000 10.8457380000 6.2032010000
O -2.1512600000 10.1354320000 5.2203140000
H -2.0443140000 9.1361680000 5.3731680000
O -1.7516160000 12.0682490000 6.1627200000
C -0.9557980000 10.2072030000 7.3602750000
H -0.5599450000 10.9465470000 8.0440890000
C -0.7525280000 8.9239960000 7.6817740000
H -0.2068560000 8.7200570000 8.5947010000
C -1.1924510000 7.7140580000 6.9453010000
O -0.8245140000 6.6062760000 7.5354700000
H -1.1773530000 5.7974810000 7.0490240000
O -1.8424980000 7.7291010000 5.8973240000
C 2.0457470000 10.8457380000 6.2032010000
O 1.5420400000 10.1354320000 5.2203140000
H 1.6489860000 9.1361680000 5.3731680000
O 1.9416840000 12.0682490000 6.1627200000
C 2.7375020000 10.2072030000 7.3602750000
H 3.1333550000 10.9465470000 8.0440890000
C 2.9407720000 8.9239960000 7.6817740000
H 3.4864440000 8.7200570000 8.5947010000
C 2.5008490000 7.7140580000 6.9453010000
O 2.8687860000 6.6062760000 7.5354700000
H 2.5159470000 5.7974810000 7.0490240000
O 1.8508020000 7.7291010000 5.8973240000
