24
0 1
O -0.5238270000 4.6154520000 11.0035740000
C -1.1149560000 5.6110600000 10.6012340000
C -0.5862280000 6.9701350000 10.8592530000
H 0.3384540000 7.0391990000 11.4186220000
C -2.3879660000 5.4876920000 9.8518490000
H -2.7431760000 4.4788810000 9.6749470000
O -3.1030610000 8.9265480000 9.2756490000
C -2.5119320000 7.9309400000 9.6779890000
C -1.2389230000 8.0543080000 10.4273740000
H -0.8837130000 9.0631190000 10.6042760000
C -3.0406600000 6.5718650000 9.4199690000
H -3.9653420000 6.5028010000 8.8606010000
O -0.5238270000 11.3864520000 11.0035740000
C -1.1149560000 12.3820600000 10.6012340000
C -0.5862280000 13.7411350000 10.8592530000
H 0.3384540000 13.8101990000 11.4186220000
C -2.3879660000 12.2586920000 9.8518490000
H -2.7431760000 11.2498810000 9.6749470000
O -3.1030610000 15.6975480000 9.2756490000
C -2.5119320000 14.7019400000 9.6779890000
C -1.2389230000 14.8253080000 10.4273740000
H -0.8837130000 15.8341190000 10.6042760000
C -3.0406600000 13.3428650000 9.4199690000
H -3.9653420000 13.2738010000 8.8606010000
