12
0 1
O 0.0806540000 12.3120480000 7.6237030000
C -0.5104750000 11.3164400000 7.2213640000
C 0.0182530000 9.9573650000 7.4793830000
H 0.9429350000 9.8883010000 8.0387520000
C -1.7834840000 11.4398080000 6.4719790000
H -2.1386940000 12.4486190000 6.2950760000
O -2.4985800000 8.0009520000 5.8957780000
C -1.9074510000 8.9965600000 6.2981180000
C -0.6344410000 8.8731920000 7.0475030000
H -0.2792310000 7.8643810000 7.2244060000
C -2.4361790000 10.3556350000 6.0400990000
H -3.3608610000 10.4246990000 5.4807300000
