24
0 1
C -1.9578280000 2.5906680000 6.3014330000
C -1.6723700000 0.1530910000 6.3823830000
C -0.2646240000 0.3535820000 6.5297630000
C 0.2115880000 1.6060340000 6.5520940000
H 1.1438430000 1.8118460000 6.6240740000
H -0.2938560000 3.4702300000 6.4032720000
H -3.2846510000 1.1720070000 6.1724330000
H 0.2820030000 -0.3985070000 6.5820470000
N -0.5973090000 2.6917800000 6.4401560000
N -2.4238020000 1.2955200000 6.2855310000
O -2.6990310000 3.5490660000 6.2046440000
O -2.2406330000 -0.9536950000 6.3343340000
C 0.4184440000 8.7786680000 6.2441620000
C 0.1329860000 6.3410910000 6.1632120000
C -1.2747600000 6.5415820000 6.0158330000
C -1.7509720000 7.7940340000 5.9935010000
H -2.6832270000 7.9998460000 5.9215210000
H -1.2455280000 9.6582300000 6.1423230000
H 1.7452680000 7.3600070000 6.3731620000
H -1.8213870000 5.7894930000 5.9635490000
N -0.9420750000 8.8797800000 6.1054390000
N 0.8844180000 7.4835200000 6.2600640000
O 1.1596470000 9.7370660000 6.3409520000
O 0.7012490000 5.2343050000 6.2112620000
