26
0 1
O -0.1263010000 16.4413880000 12.9245260000
C -0.7012660000 17.4636000000 12.1859810000
H -1.5687030000 17.1874940000 11.6155660000
C 0.0254300000 18.5819360000 12.3962880000
C 0.4739340000 20.0344320000 12.2735360000
H 0.8247530000 20.3269800000 11.2848350000
H -0.2382680000 20.7795260000 12.6253560000
C 1.6338980000 19.6692840000 13.2932160000
H 2.6429790000 19.7737570000 12.9000920000
H 1.5749150000 20.1764690000 14.2541380000
C 1.0770370000 18.2563760000 13.2917620000
C 0.9735110000 16.9480670000 13.5996580000
H 1.4989960000 16.2471150000 14.2215600000
O 2.5281990000 16.4413880000 8.8914740000
C 1.9532340000 17.4636000000 9.6300190000
H 1.0857970000 17.1874940000 10.2004340000
C 2.6799300000 18.5819360000 9.4197120000
C 3.1284340000 20.0344320000 9.5424640000
H 3.4792530000 20.3269800000 10.5311650000
H 2.4162320000 20.7795260000 9.1906440000
C 4.2883980000 19.6692840000 8.5227840000
H 5.2974790000 19.7737570000 8.9159080000
H 4.2294150000 20.1764690000 7.5618620000
C 3.7315370000 18.2563760000 8.5242380000
C 3.6280110000 16.9480670000 8.2163420000
H 4.1534960000 16.2471150000 7.5944400000
