24
0 1
O 4.9199210000 3.5010030000 0.0308270000
H 4.2288360000 3.7307340000 -0.6607860000
O 3.2448780000 2.3747100000 0.9737200000
C 4.4111080000 2.7568100000 0.9980360000
C 5.3859920000 2.4346530000 2.0860740000
H 4.8923040000 1.8762530000 2.8744310000
H 6.2068770000 1.8463600000 1.6756470000
H 5.8156350000 3.3522820000 2.4834800000
O 4.9199210000 3.5010030000 5.7928270000
H 4.2288360000 3.7307340000 5.1012140000
O 3.2448780000 2.3747100000 6.7357200000
C 4.4111080000 2.7568100000 6.7600360000
C 5.3859920000 2.4346530000 7.8480740000
H 4.8923040000 1.8762530000 8.6364310000
H 6.2068770000 1.8463600000 7.4376470000
H 5.8156350000 3.3522820000 8.2454800000
O 1.6555790000 1.5395030000 2.9118270000
H 2.3466640000 1.7692340000 2.2202140000
O 3.3306220000 0.4132100000 3.8547200000
C 2.1643920000 0.7953100000 3.8790360000
C 1.1895080000 0.4731530000 4.9670740000
H 1.6831960000 -0.0852470000 5.7554310000
H 0.3686230000 -0.1151400000 4.5566470000
H 0.7598650000 1.3907820000 5.3644800000
