8
0 1
O 1.0698440000 17.8870530000 8.0342050000
C 0.2686850000 17.4018900000 8.9671500000
O -0.1145100000 16.2364060000 8.9473820000
C -0.1380720000 18.4131240000 9.9922930000
H 1.3191780000 17.1913580000 7.3549820000
H -0.9281570000 19.0316930000 9.5623430000
H 0.6930860000 19.0716890000 10.2323300000
H -0.5251790000 17.9244440000 10.8801820000
