9
0 1
C 10.2467840000 1.8793050000 9.0665570000
C 9.5625510000 3.2257270000 9.0941030000
O 10.0927920000 4.2209630000 8.5567640000
N 8.4043870000 3.3017630000 9.7485010000
H 7.9810220000 4.2078260000 9.9590270000
H 7.9978570000 2.4644040000 10.1712720000
H 10.8543090000 1.7942120000 9.9697700000
H 9.5406010000 1.0516660000 9.0584350000
H 10.9024600000 1.8082120000 8.2037810000
