9
0 1
N 6.4162530000 6.2589020000 5.0694280000
C 5.5056640000 6.8573190000 5.8660870000
N 5.2900700000 6.1561970000 6.9685500000
C 6.1093770000 5.0534310000 6.8685820000
C 6.8138540000 5.1057490000 5.6984780000
H 6.8102480000 6.6386540000 4.1825490000
H 5.0256350000 7.7907880000 5.6295520000
H 6.1583480000 4.3044440000 7.6365940000
H 7.5488770000 4.4389160000 5.2880050000
