9
0 1
C 10.6270160000 5.5790020000 5.9690450000
C 11.4760740000 4.8438620000 6.8114030000
C 10.6882780000 3.8171850000 7.2950630000
H 8.6293120000 3.3640170000 6.8435750000
H 10.9175160000 3.0111750000 7.9676890000
H 12.5100610000 5.0343190000 7.0316610000
H 10.8406120000 6.4586510000 5.3864310000
N 9.4613340000 3.9727730000 6.7574220000
N 9.4049050000 5.0437600000 5.9366700000
