27
0 1
C 2.4370160000 5.5790020000 5.9690450000
C 3.2860740000 4.8438620000 6.8114030000
C 2.4982780000 3.8171850000 7.2950630000
H 0.4393120000 3.3640170000 6.8435750000
H 2.7275160000 3.0111750000 7.9676890000
H 4.3200610000 5.0343190000 7.0316610000
H 2.6506120000 6.4586510000 5.3864310000
N 1.2713340000 3.9727730000 6.7574220000
N 1.2149050000 5.0437600000 5.9366700000
C 5.9223530000 2.3489210000 6.2619770000
C 5.0488070000 1.3772530000 6.7738130000
C 5.8018780000 0.6782410000 7.6957540000
H 7.8376660000 1.0373770000 8.3137220000
H 5.5545400000 -0.1416150000 8.3456230000
H 4.0200610000 1.2105880000 6.5142710000
H 5.7223530000 3.1023130000 5.5204690000
N 7.0335720000 1.2292180000 7.6963630000
N 7.1274290000 2.2567770000 6.8269130000
C 5.9223530000 3.9450790000 2.8754770000
C 5.0488070000 4.9167470000 3.3873130000
C 5.8018780000 5.6157590000 4.3092540000
H 7.8376660000 5.2566230000 4.9272220000
H 5.5545400000 6.4356150000 4.9591230000
H 4.0200610000 5.0834120000 3.1277710000
H 5.7223530000 3.1916870000 2.1339690000
N 7.0335720000 5.0647820000 4.3098630000
N 7.1274290000 4.0372230000 3.4404130000
