10
0 1
C 8.3393640000 3.3294890000 13.4193250000
C 8.4664250000 0.8574170000 13.4743240000
C 7.8264320000 1.9991030000 12.8507170000
H 7.9786700000 1.9347120000 11.7728730000
H 6.7484980000 1.9177670000 13.0085230000
H 8.1506070000 5.3355060000 13.1641430000
H 7.2137440000 4.3487650000 12.0384210000
N 7.8305840000 4.4204760000 12.8397880000
N 8.9713050000 -0.0504280000 13.9668500000
O 9.1317590000 3.3559230000 14.3643250000
