10
0 1
N 1.4208310000 6.5883650000 7.3972930000
C 2.2338570000 7.0890510000 6.7229670000
N 3.1613780000 7.6992700000 6.0590250000
C 3.4228940000 7.3688560000 4.7838940000
N 2.7413660000 6.4410090000 4.1027230000
N 4.4017850000 8.0295070000 4.1676300000
H 3.0679350000 6.1692100000 3.1829300000
H 1.9973630000 5.8972350000 4.5230860000
H 4.6162160000 7.7989820000 3.2037000000
H 4.9552740000 8.7062600000 4.6926700000
