11
0 1
N 7.8850480000 4.8384450000 5.3704380000
O 6.8757080000 6.3333940000 4.0872220000
O 7.5511570000 7.0022410000 6.1257430000
C 7.4917170000 4.0467210000 4.2119850000
C 7.0513510000 5.1589130000 3.2448810000
C 7.4655550000 6.1097640000 5.2901260000
H 8.2879930000 4.4577300000 6.2300550000
H 6.6875190000 3.3557500000 4.4601120000
H 8.3307200000 3.4765850000 3.8170560000
H 7.8135680000 5.3983700000 2.5049840000
H 6.1078020000 4.9582020000 2.7507760000
