33
0 1
O 11.0054510000 9.2963900000 13.2883450000
O 10.1418390000 8.7436760000 15.2828480000
O 11.3874210000 10.0961130000 11.2327180000
C 10.0306830000 9.3771560000 14.2750170000
C 8.9418740000 10.3185200000 13.8363390000
C 9.3691340000 10.7915220000 12.4484860000
C 10.6701850000 10.0783990000 12.1908270000
H 7.9941060000 9.7826070000 13.8289340000
H 8.8492800000 11.1139560000 14.5722890000
H 9.5416390000 11.8650370000 12.3853640000
H 8.6599010000 10.5267280000 11.6656360000
O 8.0467990000 11.7915100000 7.4110950000
O 8.9104110000 12.3442240000 9.4055980000
O 7.6648290000 10.9917870000 5.3554680000
C 9.0215670000 11.7107440000 8.3977670000
C 10.1103760000 10.7693800000 7.9590890000
C 9.6831160000 10.2963780000 6.5712360000
C 8.3820650000 11.0095010000 6.3135770000
H 11.0581440000 11.3052930000 7.9516840000
H 10.2029700000 9.9739440000 8.6950390000
H 9.5106110000 9.2228630000 6.5081140000
H 10.3923490000 10.5611720000 5.7883860000
O 8.0467990000 11.7915100000 19.1655950000
O 8.9104110000 12.3442240000 21.1600980000
O 7.6648290000 10.9917870000 17.1099680000
C 9.0215670000 11.7107440000 20.1522670000
C 10.1103760000 10.7693800000 19.7135890000
C 9.6831160000 10.2963780000 18.3257360000
C 8.3820650000 11.0095010000 18.0680770000
H 11.0581440000 11.3052930000 19.7061840000
H 10.2029700000 9.9739440000 20.4495390000
H 9.5106110000 9.2228630000 18.2626140000
H 10.3923490000 10.5611720000 17.5428860000
