12
0 1
C -1.8128660000 3.5358670000 7.8544030000
C -3.0190700000 4.3940920000 7.7920900000
H -2.8059310000 5.4544180000 7.7266030000
C -4.3026550000 4.0188330000 7.7845580000
H -5.0377400000 4.8088840000 7.7062470000
C -4.9361710000 2.6756250000 7.8882040000
O -0.7126710000 4.2356580000 7.9498940000
H 0.1116840000 3.6563810000 7.9522600000
O -1.8208500000 2.3032900000 7.7965720000
O -4.2269330000 1.5727400000 7.9227530000
H -3.2297930000 1.7455950000 7.8344200000
O -6.1608590000 2.5895000000 7.9621570000
