12
0 1
C 6.3874440000 9.7853320000 6.2441620000
C 6.1019860000 12.2229090000 6.1632120000
C 4.6942400000 12.0224180000 6.0158330000
C 4.2180280000 10.7699660000 5.9935010000
H 3.2857730000 10.5641540000 5.9215210000
H 4.7234720000 8.9057700000 6.1423230000
H 7.7142680000 11.2039930000 6.3731620000
H 4.1476130000 12.7745070000 5.9635490000
N 5.0269250000 9.6842200000 6.1054390000
N 6.8534180000 11.0804800000 6.2600640000
O 7.1286470000 8.8269340000 6.3409520000
O 6.6702490000 13.3296950000 6.2112620000
