13
0 1
O 5.1826990000 16.4413880000 12.9245260000
C 4.6077340000 17.4636000000 12.1859810000
H 3.7402970000 17.1874940000 11.6155660000
C 5.3344300000 18.5819360000 12.3962880000
C 5.7829340000 20.0344320000 12.2735360000
H 6.1337530000 20.3269800000 11.2848350000
H 5.0707320000 20.7795260000 12.6253560000
C 6.9428980000 19.6692840000 13.2932160000
H 7.9519790000 19.7737570000 12.9000920000
H 6.8839150000 20.1764690000 14.2541380000
C 6.3860370000 18.2563760000 13.2917620000
C 6.2825110000 16.9480670000 13.5996580000
H 6.8079960000 16.2471150000 14.2215600000
