23
0 1
C 0.0000000000 2.5604760000 0.4927530000
H 0.8738400000 2.5601930000 1.1512000000
H -0.8738400000 2.5601930000 1.1512000000
C 0.0000000000 1.2796340000 -0.3420890000
H -0.8743830000 1.2802920000 -1.0015740000
H 0.8743830000 1.2802920000 -1.0015740000
C 0.0000000000 0.0000000000 0.4944050000
H -0.8744750000 0.0000000000 1.1535430000
H 0.8744750000 0.0000000000 1.1535430000
C 0.0000000000 -1.2796340000 -0.3420890000
H 0.8743830000 -1.2802920000 -1.0015740000
H -0.8743830000 -1.2802920000 -1.0015740000
C 0.0000000000 -2.5604760000 0.4927530000
H -0.8738400000 -2.5601930000 1.1512000000
H 0.8738400000 -2.5601930000 1.1512000000
C 0.0000000000 -3.8327390000 -0.3529110000
H 0.8806010000 -3.8772900000 -0.9967750000
H 0.0000000000 -4.7273940000 0.2710230000
H -0.8806010000 -3.8772900000 -0.9967750000
C 0.0000000000 3.8327390000 -0.3529110000
H -0.8806010000 3.8772900000 -0.9967750000
H 0.0000000000 4.7273940000 0.2710230000
H 0.8806010000 3.8772900000 -0.9967750000
