17
0 1
C 0.0000000000 0.0000000000 0.0000000000
C 0.8868240000 0.8868240000 0.8868240000
C -0.8868240000 -0.8868240000 0.8868240000
C -0.8868240000 0.8868240000 -0.8868240000
C 0.8868240000 -0.8868240000 -0.8868240000
H 1.5295950000 1.5295950000 0.2819530000
H 0.2819530000 1.5295950000 1.5295950000
H 1.5295950000 0.2819530000 1.5295950000
H -1.5295950000 -1.5295950000 0.2819530000
H -0.2819530000 -1.5295950000 1.5295950000
H -1.5295950000 -0.2819530000 1.5295950000
H -1.5295950000 0.2819530000 -1.5295950000
H -1.5295950000 1.5295950000 -0.2819530000
H -0.2819530000 1.5295950000 -1.5295950000
H 0.2819530000 -1.5295950000 -1.5295950000
H 1.5295950000 -0.2819530000 -1.5295950000
H 1.5295950000 -1.5295950000 -0.2819530000
