20
0 1
C -0.7605919461 2.1917568441 -0.4882837652
C -1.3207999059 0.7872369442 -0.2974957789
C -0.7605919461 0.0782829946 0.9339611334
C 0.7605919461 -0.0782829946 0.9339611334
C 1.3207999059 -0.7872369442 -0.2974957789
C 0.7605919461 -2.1917568441 -0.4882837652
H 0.3102909777 2.1729248454 -0.6851677512
H -0.9224149341 2.7961548010 0.4049551712
H -1.2402819118 2.6974518077 -1.3249037056
H -1.1238659200 0.1905869862 -1.1903907152
H -2.4067348288 0.8425369401 -0.2039807856
H -1.2281829125 -0.9038189357 1.0256411270
H -1.0535439251 0.6383719546 1.8256650701
H 1.0535439251 -0.6383719546 1.8256650701
H 1.2281829125 0.9038189357 1.0256411270
H 2.4067348288 -0.8425369401 -0.2039807856
H 1.1238659200 -0.1905869862 -1.1903907152
H 1.2402819118 -2.6974518077 -1.3249037056
H -0.3102909777 -2.1729248454 -0.6851677512
H 0.9224149341 -2.7961548010 0.4049551712
