20
0 1
C -0.4884739650 -0.0789649945 2.7098058069
C 0.7151509492 0.1984209860 1.8163428709
C 0.5579949603 -0.3374839759 0.3947789720
C -0.5579949603 0.3374839759 -0.3947789720
C -0.7151509492 -0.1984209860 -1.8163428709
C 0.4884739650 0.0789649945 -2.7098058069
H -0.7080119496 -1.1468159181 2.7374878050
H -1.3805219018 0.4347469690 2.3565588320
H -0.3037729782 0.2496779823 3.7314077346
H 1.6029998860 -0.2487319823 2.2667258384
H 0.9004179360 1.2744569095 1.7732908736
H 0.3657749739 -1.4143878992 0.4355709688
H 1.5041358927 -0.2112699850 -0.1336999905
H -0.3657749739 1.4143878992 -0.4355709688
H -1.5041358927 0.2112699850 0.1336999905
H -1.6029998860 0.2487319823 -2.2667258384
H -0.9004179360 -1.2744569095 -1.7732908736
H 0.3037729782 -0.2496779823 -3.7314077346
H 1.3805219018 -0.4347469690 -2.3565588320
H 0.7080119496 1.1468159181 -2.7374878050
