20
0 1
C -1.8263409700 1.2351492620 0.0224876487
C -2.0339069553 -0.2557986318 -0.2140803350
C -0.8989900360 -1.1412135689 0.2982996286
C 0.4675218669 -0.8416615901 -0.3317343262
C 1.3492708039 0.0892433435 0.4954206145
C 2.6681567102 0.4005353213 -0.1992873358
H -0.9605730318 1.6088712356 -0.5221953127
H -1.6713139811 1.4447902469 1.0811315731
H -2.6929489082 1.8060602214 -0.3080143282
H -2.1595119463 -0.4354686192 -1.2845342586
H -2.9660338887 -0.5674536093 0.2609786316
H -1.1696460169 -2.1806274945 0.1064046422
H -0.8230470414 -1.0415035757 1.3849235514
H 0.3220738772 -0.4133556207 -1.3284592554
H 1.0161948276 -1.7738535235 -0.4831863156
H 1.5433407901 -0.3825096228 1.4614005462
H 0.8173978416 1.0162742777 0.7097425994
H 3.3020026650 1.0446862757 0.4081406210
H 2.4945057226 0.9031322857 -1.1508512679
H 3.2218476706 -0.5152966133 -0.4065873211
