20
0 1
C 0.6828599515 2.9336407909 -0.2998548785
C 0.6828599515 1.4134208993 -0.3976838716
C -0.0302939978 0.7623849456 0.7816900443
C 0.0302939978 -0.7623849456 0.7816900443
C -0.6828599515 -1.4134208993 -0.3976838716
C -0.6828599515 -2.9336407909 -0.2998548785
H 1.1847769158 3.2631587675 0.6097440566
H -0.3365919763 3.3183987637 -0.2721668806
H 1.1899609151 3.3922347584 -1.1473158184
H 1.7113258780 1.0456919253 -0.4386878690
H 0.2083119854 1.1111979208 -1.3321028050
H -1.0766269234 1.0821409229 0.7892240439
H 0.4124819706 1.1395279186 1.7071539784
H -0.4124819706 -1.1395279186 1.7071539784
H 1.0766269234 -1.0821409229 0.7892240439
H -0.2083119854 -1.1111979208 -1.3321028050
H -1.7113258780 -1.0456919253 -0.4386878690
H -1.1899609151 -3.3922347584 -1.1473158184
H -1.1847769158 -3.2631587675 0.6097440566
H 0.3365919763 -3.3183987637 -0.2721668806
