20
0 1
C 2.7117926572 -0.4347570189 0.1218167411
C 1.2126377635 -0.4057370211 -0.1482162395
C 0.6327288050 0.9925108795 0.0269097482
C -0.8459380897 1.1376708688 -0.3283672267
C -1.7908600227 0.2548879316 0.4976327144
C -2.1175929994 -1.0828359727 -0.1594692384
H 2.9273796418 -0.0978520428 1.1358426693
H 3.2414406193 0.2254119339 -0.5648442098
H 3.1229566278 -1.4365579476 0.0080057496
H 0.7114267994 -1.1010799714 0.5266377127
H 1.0126307778 -0.7566019963 -1.1635821672
H 1.2134827637 1.6883328299 -0.5847532086
H 0.7777957945 1.3046748572 1.0655446742
H -0.9881030798 0.9194918848 -1.3906981510
H -1.1200330705 2.1853657944 -0.1938222360
H -2.7267769557 0.7888768937 0.6671797026
H -1.3545440534 0.0887329434 1.4859496442
H -2.7817049522 -1.6790919307 0.4652467167
H -1.2224060628 -1.6698389311 -0.3518262250
H -2.6163129640 -0.9216039846 -1.1151871708
