20
0 1
C 1.4151798992 2.8692867957 0.0000000000
C 1.4151798992 1.3461679041 0.0000000000
C 0.0089309995 0.7612639456 0.0000000000
C -0.0089309995 -0.7612639456 0.0000000000
C -1.4151798992 -1.3461679041 0.0000000000
C -1.4151798992 -2.8692867957 0.0000000000
H 0.9009159356 3.2558657684 0.8796629374
H 0.9009159356 3.2558657684 -0.8796629374
H 2.4266238273 3.2724927672 0.0000000000
H 1.9559078610 0.9773159304 0.8744659378
H 1.9559078610 0.9773159304 -0.8744659378
H -0.5341969620 1.1292359198 -0.8752729378
H -0.5341969620 1.1292359198 0.8752729378
H 0.5341969620 -1.1292359198 0.8752729378
H 0.5341969620 -1.1292359198 -0.8752729378
H -1.9559078610 -0.9773159304 -0.8744659378
H -1.9559078610 -0.9773159304 0.8744659378
H -2.4266238273 -3.2724927672 0.0000000000
H -0.9009159356 -3.2558657684 0.8796629374
H -0.9009159356 -3.2558657684 -0.8796629374
