7
0 3
C -1.1995759438 -0.0111260038 -0.0000300000
N 1.4007162017 0.1298622042 0.0000150000
H -1.4266617603 -0.5129319996 0.9330558416
H -1.4199094591 -0.5913819919 -0.8881445717
H -1.5202361665 1.0228042966 -0.0457830364
H 0.1889263186 0.1268961660 0.0010010022
H 1.5703386648 -0.8876683123 -0.0000530003
