10
0 3
C -1.3949852125 -0.4496609264 0.0007030013
C -0.4357462116 0.7140611447 0.0020270027
N 1.9275703245 -0.3783521805 0.0030360008
H -1.2000892457 -1.1209507939 -0.8356872348
H -1.3220963435 -1.0278843978 0.9217737835
H -2.4287117267 -0.1053523034 -0.0893341092
H -0.4176880393 1.3084806138 -0.9072002431
H -0.4411274147 1.3290973580 0.8974686742
H 0.8285010083 0.1805928359 -0.0285610170
H 2.4725911010 0.4980732327 0.0039100005
