25
0 1
N -1.4843915718 0.3391564404 0.0422481850
H -1.6933605667 1.3131723877 0.1902250184
C -0.1596856767 -0.1229170385 0.4264042637
H -0.2404351840 -0.7753379802 1.2956947033
C 0.4977170762 -0.9463685695 -0.6989660392
C 0.6940389585 1.0534200403 0.8890880250
H 0.5045781008 -0.3859749631 -1.6288149626
H -0.0836370887 -1.8555210140 -0.8170654700
C 1.9026417288 -1.3089570922 -0.3089977482
O 1.2819034282 1.0016724948 1.9593340772
O 2.7801735725 -0.3472070197 -0.7045150291
O 2.2388385774 -2.2911863817 0.3049273478
N 0.7128267542 2.1829684358 0.1117967284
C 0.5543178080 2.2366906339 -1.3341942044
H 1.3469784865 2.8651759606 0.5037915240
H -0.3229877446 1.6756067406 -1.6382920040
H 0.4057137720 3.2736355846 -1.6244204176
H 1.4266363018 1.8444660312 -1.8578389098
C -2.5334720127 -0.5417614036 0.0026647973
C -3.8945661272 0.0884184601 -0.1646867189
O -2.3698816037 -1.7495342388 0.0893677176
H -4.4402537768 -0.0147243726 0.7713597155
H -4.4389973594 -0.4601149467 -0.9279292983
H -3.8472524608 1.1403184187 -0.4356136530
H 3.6386966082 -0.6156576082 -0.3423646479
