25
0 1
N -0.7309908860 -0.6276309025 -0.2305370949
H -0.2364230938 -0.9796659494 -1.0368221626
C 0.0383357411 0.2216812108 0.6536778137
H -0.5853016308 0.3738630739 1.5353532818
C 1.3454597460 -0.4367766646 1.0736428488
C 0.3502682329 1.5730936435 0.0054009765
H 1.1231820908 -1.3869269880 1.5625097513
H 1.8862006908 0.1903933917 1.7762836309
C 2.2342113813 -0.7249730902 -0.1059315234
O 1.5110369228 1.9317208197 -0.1712977971
O 3.5348351643 -0.7105060683 0.2310555803
O 1.8525669982 -1.0007762301 -1.2256900527
N -0.7056808679 2.3437671597 -0.3444532396
C -2.1161767640 2.0427324998 -0.2074887076
H -0.4386624340 3.1950055188 -0.8136390084
H -2.6553568051 2.9689387588 -0.0237249700
H -2.5216901442 1.5723962090 -1.1036343905
H -2.2910666048 1.3782170885 0.6333396943
C -1.9023880863 -1.1977431346 0.1647256256
C -2.4935489557 -2.1845319082 -0.8110917136
O -2.4571296669 -0.9117951553 1.2211168603
H -1.8832481216 -2.3256229795 -1.6993669787
H -3.4812376692 -1.8346212195 -1.1023762834
H -2.6200425300 -3.1377085542 -0.3031430155
H 4.0170792923 -0.9246605300 -0.5821241257
