25
0 1
N -0.1722063501 0.7586460964 -0.6113899060
H -0.4067158118 0.5886981941 -1.5803377633
C 0.0793260608 -0.3803784062 0.2425742687
H -0.2022080865 -0.1238427447 1.2611938736
C -0.7707221415 -1.5701659537 -0.1919456303
C 1.5457608107 -0.8209833466 0.3164184446
H -0.5670955002 -2.3989740443 0.4844915098
H -0.5167702218 -1.8823231029 -1.2035844790
C -2.2362016148 -1.2391533377 -0.1680494697
O 1.8525282124 -1.8212967591 0.9543210380
O -2.6035214148 -0.6966182840 1.0201543810
O -3.0140742132 -1.4199392648 -1.0739060461
N 2.4185174164 -0.0237346738 -0.3362061120
C 3.8400914217 -0.2925284054 -0.3561539752
H 2.0330692478 0.7540444238 -0.8449124361
H 4.1816973329 -0.5191283040 -1.3643544044
H 4.3992554645 0.5584694206 0.0265392076
H 4.0150988450 -1.1539217242 0.2809261009
C -0.3973850599 2.0580002515 -0.2126992210
C -0.2047844984 2.3465595168 1.2551553681
O -0.7175969005 2.9132675507 -1.0224034033
H 0.7647078098 1.9974590841 1.6077344541
H -0.9762176262 1.8505694213 1.8434874446
H -0.2819398465 3.4186454926 1.3962210736
H -3.5534763357 -0.5206261003 0.9411116817
