25
0 1
N 0.7758058609 -0.8891396066 0.1336556916
H 0.3532314589 -1.0620964625 1.0341062288
C -0.0208405666 -0.1927032828 -0.8423070023
H 0.4572424943 -0.3110482554 -1.8134762743
C -1.4053581013 -0.8172613690 -0.9730484438
C -0.1764553951 1.3311311332 -0.7149961535
H -1.3226005741 -1.8726704531 -1.2333866218
H -1.9554196824 -0.3166365879 -1.7674489223
C -2.2026969173 -0.7070356203 0.2940627646
O -0.8104065939 1.8991969005 -1.6009343104
O -3.4517990716 -1.1812245491 0.1389296331
O -1.7946268481 -0.2580834506 1.3457496530
N 0.4369919978 2.0312736479 0.2728561228
C 0.9233269283 1.6110049745 1.5826009848
H 0.2339094717 3.0145701837 0.1706553578
H 0.1934096910 0.9942977926 2.0994047117
H 1.8709083634 1.0838520198 1.5275640071
H 1.0783335598 2.5141755923 2.1666248355
C 2.1415368001 -0.9898792786 0.1280053159
C 2.8456445944 -0.5639298234 -1.1371740649
O 2.7458234932 -1.4025231534 1.1089366532
H 3.9068751063 -0.7391696621 -1.0017094940
H 2.4934163150 -1.1287188592 -1.9992264355
H 2.6760385075 0.4944631174 -1.3360982457
H -3.8857018922 -1.0768839480 0.9995180083
