25
0 1
N -0.3978360243 1.0193513287 -0.7085388309
H -0.1918880962 1.2043153872 -1.6827133836
C 0.3739245949 -0.0466943493 -0.1258141195
H 0.3379114270 0.0393599675 0.9552103676
C -0.2060576559 -1.4047294384 -0.5286685389
C 1.8077134926 0.0094858868 -0.6477763307
H 0.4521700242 -2.2183435533 -0.2140716378
H -0.3009631277 -1.4599437950 -1.6111712832
C -1.5399829763 -1.6241641259 0.1302292168
O 2.0480724177 0.4516593037 -1.7632887149
O -2.3912665037 -2.3041897175 -0.6610397404
O -1.8218464785 -1.2647241020 1.2517996286
N 2.7624177866 -0.5346622084 0.1509185942
C 2.6038404801 -0.9145581550 1.5416013039
H 3.6944940116 -0.4709076255 -0.2277316094
H 1.7525193708 -1.5781072412 1.6749835867
H 3.4924086381 -1.4568596630 1.8508376648
H 2.4824194802 -0.0538228397 2.1999248820
C -0.9281880067 2.1033590950 -0.0461388370
C -0.9960444264 2.0201766782 1.4597482820
O -1.3419220041 3.0696998966 -0.6671911229
H -1.5882628852 2.8591274617 1.8073792156
H -1.4371602465 1.0837194976 1.7938189567
H 0.0039763324 2.1005106463 1.8873730733
H -3.2029326246 -2.4156423349 -0.1420766226
