25
0 1
N 1.2856874588 -0.8810926900 0.3551026428
H 1.3505605980 -1.2566103576 1.2880475617
C 0.0131613360 -0.2991523976 -0.0296937632
H 0.1317156856 0.0468591428 -1.0507714571
C -1.0758598630 -1.3556904723 0.0611237343
C -0.2925024165 0.8399395573 0.9417074069
H -1.1404134164 -1.7435795515 1.0758095585
H -0.8311240515 -2.1863328053 -0.6018595976
C -2.4547183944 -0.8759028713 -0.3058251993
O -0.6597572964 0.5738152959 2.0840934386
O -2.4255358139 0.2970947736 -0.9924446197
O -3.4810028613 -1.4575118178 -0.0551961388
N -0.0694167151 2.1021316076 0.5167814839
C 0.2299414369 2.5303304397 -0.8400284038
H -0.2985667875 2.8026185776 1.2046411257
H -0.6347454813 2.4278619245 -1.4949958787
H 0.5159209635 3.5775054860 -0.8046727201
H 1.0634962021 1.9650078568 -1.2481481483
C 2.4405338981 -0.5854030310 -0.3103761584
C 3.6976499695 -1.1299141292 0.3212094333
O 2.4596142735 0.0638535904 -1.3493032484
H 4.2622626919 -0.2981870542 0.7384412760
H 4.3043178673 -1.5867989610 -0.4553057693
H 3.5008457113 -1.8559765031 1.1058420085
H -3.3539419952 0.5054573897 -1.1792925676
