22
0 1
N 1.4070458728 -1.2660534202 -1.9371346656
H 1.8500720061 -0.4682407278 -1.5091824239
C -0.0336243253 -1.3926924519 -1.7400358208
H -0.5685700993 -1.0176444449 -2.6126346711
C -0.4409629734 -2.8433780890 -1.4889973401
C -0.4799176123 -0.5523095439 -0.5552022297
H -1.5156604590 -2.8918735481 -1.3227388132
H -0.1811652075 -3.4518780599 -2.3492043147
H 0.0698972234 -3.2329899890 -0.6087283270
O -1.5666825392 0.0055212097 -0.5288467500
C 1.9924534106 -1.7309716524 -3.0886923911
C 3.4288424421 -1.3066006929 -3.2871266574
H 3.8772196254 -0.8884312301 -2.3892145304
H 3.4654854576 -0.5649530829 -4.0831178830
H 4.0025337417 -2.1697093813 -3.6121006837
O 1.4018796863 -2.4382611183 -3.8903412740
N 0.4086919839 -0.4910170935 0.4799242496
H 1.1559190134 -1.1652484226 0.4874026665
C 0.0072349249 0.1169227618 1.7342629757
H 0.8882212845 0.2849900184 2.3464565801
H -0.4723155777 1.0673763400 1.5228668255
H -0.7019998792 -0.5048593812 2.2805824785
