25
0 1
N -0.2259906701 0.7793919414 -0.6700205962
H 0.2538683625 1.0731706571 -1.5097086549
C 0.0439536701 -0.5784342141 -0.2435979392
H 0.1971696178 -1.1450852249 -1.1650877678
C 1.3236702424 -0.7027715161 0.5687052282
C -1.1235956806 -1.2420646218 0.4864358885
H 1.4360819943 -1.7232232347 0.9383528401
H 1.2856156770 -0.0565936548 1.4461906642
C 2.5215947027 -0.3507342847 -0.2831961368
O -0.9789700776 -1.7535783885 1.5916100274
O 3.6962745753 -0.2469971118 0.3817393482
O 2.4842369700 -0.1864394635 -1.4775659624
N -2.3094380846 -1.2635225778 -0.1691656752
C -2.6124933579 -0.7667609018 -1.4975845396
H -3.0455546026 -1.7077420229 0.3570613553
H -3.4657754983 -1.3201192085 -1.8809176898
H -2.8480451706 0.2959575125 -1.5001786065
H -1.7774646873 -0.9335979103 -2.1722556043
C -0.6693690624 1.8391094301 0.0878139940
C -1.2662936156 1.5338675087 1.4396531082
O -0.6252947311 2.9757197267 -0.3589572709
H -2.2705753154 1.1308520631 1.3114176358
H -1.3319341894 2.4689864744 1.9850298000
H -0.6974290609 0.8057688044 2.0117812451
H 3.5398229923 -0.4037097820 1.3202963085
