25
0 1
N -0.3121393571 1.2552705072 -0.2395190728
H 0.0176357437 1.9090793216 -0.9315837836
C 0.4091073824 0.0169457385 -0.1350668030
H 0.3038136940 -0.3467374422 0.8873066823
C -0.1316001552 -1.0473046712 -1.1112954283
C 1.8614431185 0.2925201516 -0.4950074821
H 0.4617508674 -1.9564027641 -1.0220918770
H -0.0664227101 -0.6586953372 -2.1248274316
C -1.5700639672 -1.3444730092 -0.7952616894
O 2.1519068784 1.1377735946 -1.3345670571
O -1.6693348452 -2.2284481541 0.2228313013
O -2.5244183713 -0.8479924364 -1.3453870665
N 2.7622139942 -0.5002930534 0.1294643773
C 4.1823195369 -0.4212506053 -0.1440410081
H 2.4309417131 -1.1069419272 0.8589471290
H 4.7206720679 0.0407776360 0.6817211096
H 4.5899599426 -1.4124055330 -0.3276992605
H 4.3077775862 0.1913020502 -1.0309405076
C -1.4003100310 1.5138255668 0.5356932475
C -2.1016057863 2.8135445704 0.2384154367
O -1.7907088503 0.7294982736 1.3928696391
H -2.4580410759 3.2411002751 1.1704415602
H -1.4640542225 3.5274576160 -0.2774708644
H -2.9647584289 2.5955946804 -0.3886712647
H -2.6101717242 -2.2572700489 0.4530281137
