25
0 1
N -0.0383929877 1.0584091598 0.4669302861
H -0.5717848369 1.3776853249 1.2604507308
C 0.4519892064 -0.3089561207 0.5617413546
H 0.6384727780 -0.4849511100 1.6222250124
C -0.5572738301 -1.3329658388 0.0724204683
C 1.7973891982 -0.5134525798 -0.1394725292
H -0.1158833366 -2.3280487835 0.0942849491
H -0.8247386490 -1.1383456095 -0.9655163796
C -1.7938548943 -1.3184433844 0.9192307338
O 2.1315090246 -1.6168901406 -0.5498811611
O -2.7068308324 -2.2103890898 0.4835231472
O -1.9859818798 -0.6086504157 1.8853387027
N 2.6020359928 0.5726639731 -0.1592064977
C 3.8515337898 0.5397183762 -0.8893257653
H 2.1697077068 1.4575138123 0.0417935840
H 3.6927141628 0.6438886800 -1.9627918286
H 4.4930259012 1.3433969373 -0.5396404372
H 4.3356985916 -0.4142595136 -0.7061379450
C -0.3799433774 1.5818360177 -0.7552930609
C -1.1948405988 2.8504510538 -0.7038193509
O -0.0330440077 1.0567756208 -1.8040642966
H -2.2428455365 2.5958553389 -0.8566492315
H -0.8851855188 3.4984764917 -1.5179021104
H -1.0976972814 3.3734827355 0.2443589186
H -3.4588587848 -2.1334079356 1.0898957063
