25
0 1
N -0.2529930019 0.8523986872 0.1278899001
H 0.3838477200 1.4164147100 0.6722037056
C 0.2785001432 -0.3610880157 -0.4500012921
H 0.5521251885 -0.2002263095 -1.4948705518
C 1.5178792977 -0.8141856186 0.3352943667
C -0.6697112246 -1.5605607792 -0.5190935557
H 1.9028915006 -1.7208241714 -0.1220434093
H 1.2374119828 -1.0182985230 1.3684074248
C 2.5674430630 0.2602397115 0.3464638258
O -0.5513257562 -2.3324262140 -1.4606230646
O 3.6489738788 -0.0616777830 -0.3841985592
O 2.4573457433 1.3228268870 0.9263070791
N -1.5086839788 -1.8277511567 0.5181005612
C -1.9005304870 -1.0020963721 1.6427679049
H -2.0847530197 -2.6311467239 0.3193639697
H -2.4190259772 -1.6401540182 2.3543068033
H -1.0360356029 -0.5782650674 2.1430577263
H -2.5701377862 -0.1929699145 1.3515462418
C -1.3717810491 1.4211842790 -0.4042093241
C -1.7427088428 2.7692741552 0.1635567473
O -2.0491414527 0.8445905188 -1.2453676606
H -2.6075120839 2.6497584583 0.8141217281
H -0.9360805278 3.2265871170 0.7314951591
H -2.0313652270 3.4225456521 -0.6548850991
H 4.2431815000 0.7034054909 -0.3319576273
