23
0 1
N -1.1662066896 -0.7498513963 -0.6515460012
C 0.0591072781 -0.7026209575 0.1224677264
C 0.5774617801 0.7211628174 0.3453617462
O 1.3903816353 0.9615012808 1.2350441097
C 1.1287761465 -1.5060712521 -0.6245965375
S 2.5889210740 -1.9194217867 0.3712632906
H -1.1550476119 -1.2273296005 -1.5416528733
H -0.0772937225 -1.1453294828 1.1088734302
H 0.6988656872 -2.4651201446 -0.9137437843
H 1.4188737867 -0.9748442212 -1.5318896231
C -2.4368338875 -0.5305293758 -0.1621236437
O -3.4194422323 -0.7411522528 -0.8543732769
N 0.1157960300 1.6386030962 -0.5307205072
C 0.5368347242 3.0225923735 -0.4951231890
H 1.2340655945 3.1283382430 0.3301499019
H 1.0343411364 3.3018511178 -1.4217138009
H -0.3133552032 3.6823979033 -0.3344507688
H -0.5898932499 1.3311858933 -1.1793528609
C -2.5146037990 -0.0158731130 1.2526038528
H -2.2154391256 -0.7957046448 1.9526726099
H -3.5422793078 0.2646687027 1.4539057740
H -1.8584942532 0.8384445935 1.4092113273
H 2.7053292095 -0.7016347934 0.9196840978
