23
0 1
N 0.9952849618 -0.2409021715 -0.2615527741
C -0.0107296243 0.1811466638 0.6866069250
C -1.3853222341 -0.4295716020 0.4088244295
O -2.4066448932 0.1061061985 0.8284915960
C -0.1237073013 1.6985324275 0.7568139347
S -0.5486769547 2.4394404190 -0.8516736482
H 0.9496000784 0.2011334663 -1.1687203349
H 0.3174434649 -0.1955102318 1.6584405977
H -0.8702912290 1.9847739818 1.4907906971
H 0.8383627937 2.1230825333 1.0381821500
C 2.2136786776 -0.7159455725 0.1647083091
O 2.4288319974 -1.0326182104 1.3240466027
N -1.3627679153 -1.5838894288 -0.2901916977
C -2.5623266563 -2.3411201333 -0.5698016483
H -2.6731566963 -2.5103986999 -1.6388254865
H -2.5496454070 -3.3010985737 -0.0566324562
H -3.4040083007 -1.7580034430 -0.2094044019
H -0.4613081477 -1.9185214318 -0.5848198659
C 3.2587656794 -0.8338561576 -0.9174717043
H 3.9994414880 -0.0501663247 -0.7684850218
H 2.8453231640 -0.7440425505 -1.9189518234
H 3.7633466886 -1.7899245825 -0.8124671010
H -1.8126456337 1.9993294236 -0.8493362777
