23
0 1
N 0.3632940774 0.7627768008 -0.8258361095
C 0.1121951546 -0.6409603871 -0.5384180715
C -1.3275344208 -0.9070584510 -0.0825023968
O -1.5984958156 -1.8950769557 0.5873973925
C 1.0921950058 -1.2353930828 0.4692184390
S 2.8257698278 -1.0614669766 -0.0478755113
H 1.0216892026 0.9459437868 -1.5661353752
H 0.2228504904 -1.1707751842 -1.4872988304
H 0.8490321526 -2.2770559292 0.6493813846
H 1.0074318763 -0.7037133328 1.4142896991
C 0.3516928237 1.6827181974 0.1981660945
O -0.1657570542 1.4390568429 1.2781045079
N -2.2508255574 -0.0427787128 -0.5602141362
C -3.6262739417 -0.1228525762 -0.1164113895
H -3.7617322838 0.3437316662 0.8594803028
H -4.2688449203 0.3664038623 -0.8428542000
H -3.9019548636 -1.1696400970 -0.0368782969
H -1.9041993136 0.8144147459 -0.9541631503
C 1.0068208336 3.0019347142 -0.1250028452
H 0.9567013616 3.2396452700 -1.1852087614
H 2.0549750301 2.9489404863 0.1682135985
H 0.5285707215 3.7846400536 0.4546768014
H 2.7909736131 -1.9850397413 -1.0156161461
