23
0 1
N 0.9689492495 -0.8386772111 -0.8676518417
C -0.3752782031 -0.3124986560 -0.6633807295
C -0.3302843468 1.1040034233 -0.0737062172
O -1.1773317791 1.5052441900 0.7139951003
C -1.2500632056 -1.2307068231 0.1882479267
S -3.0283003642 -0.9737805639 -0.0769273367
H 1.1257417036 -1.4096376358 -1.6815915634
H -0.8292140834 -0.2243930347 -1.6520164984
H -1.0629341725 -2.2631833542 -0.1052418279
H -1.0047870764 -1.1167521537 1.2399126375
C 1.8236831969 -1.0015103223 0.1947023554
O 1.5857185320 -0.5160619669 1.2899437162
N 0.6566368841 1.8901920580 -0.5630721760
C 0.8801096921 3.2025526721 0.0078617351
H 1.3146925153 3.1370830937 1.0054174036
H 1.5448404654 3.7643424224 -0.6416623633
H -0.0710470462 3.7201933786 0.0839504714
H 1.4129861232 1.4234487011 -1.0325618584
C 3.0715014830 -1.7988092017 -0.0964139944
H 3.2798275091 -1.8896897552 -1.1597926790
H 2.9517558599 -2.7952764690 0.3259852313
H 3.9114940557 -1.3253876670 0.4029683127
H -3.0301389924 0.2606698755 0.4379341956
