23
0 1
N -0.5630916857 0.6371618599 0.9506877813
C 0.0163306839 -0.6565687821 0.6119591147
C 1.5439272817 -0.6615176929 0.4618095845
O 2.2114312077 -1.4974895799 1.0643169029
C -0.6249626982 -1.2966227845 -0.6209303900
S -2.4244341786 -1.4963122033 -0.4800819607
H -1.0750586246 0.6777032963 1.8143877445
H -0.1649090473 -1.3006874967 1.4696807093
H -0.1551205459 -2.2608419261 -0.8033651873
H -0.4733340580 -0.6675285170 -1.4944332869
C -0.7771926408 1.6542946417 0.0804286675
O -0.2807815339 1.6888614078 -1.0471247498
N 2.0405707091 0.2498539643 -0.3976021706
C 3.4591740330 0.3433205474 -0.6642249025
H 3.9262864721 -0.5788432783 -0.3324912494
H 3.6287816673 0.4743170605 -1.7301406870
H 3.9138468828 1.1768297090 -0.1295332652
H 1.3812699031 0.8815590146 -0.8406051145
C -1.6836015754 2.7490652303 0.5799101800
H -1.7293455417 2.7946212113 1.6652790273
H -2.6856062250 2.5646298047 0.1948968125
H -1.3366237841 3.6987633948 0.1856242790
H -2.3927407014 -2.4410748817 0.4667701605
