23
0 1
N -0.7381198988 -0.0998991710 0.4451097188
C 0.3079232064 0.1549669002 -0.5191255454
C 1.6891645864 -0.1503499830 0.0645313668
O 2.5510956944 0.7199558363 0.1358443963
C 0.2700434532 1.5941138035 -1.0167418387
S 0.3607681213 2.8000556512 0.3534263772
H -0.7809248735 0.5333181626 1.2289226719
H 0.1099368840 -0.5151120885 -1.3582193289
H 1.1183112813 1.7777536893 -1.6692967721
H -0.6506801954 1.7634195158 -1.5685263134
C -1.8161315970 -0.8831284917 0.1560351823
O -1.8907713937 -1.5541358458 -0.8671386238
N 1.9070357540 -1.4194627987 0.4858147811
C 0.9949980033 -2.5443289615 0.4505950423
H 1.5662866241 -3.4538479776 0.2804626020
H 0.4391710395 -2.6492765212 1.3827826489
H 0.2805139723 -2.4395871357 -0.3604252736
H 2.8150809422 -1.5488761178 0.9039205840
C -2.8952834046 -0.9015999594 1.2100469711
H -2.9956039318 -1.9178205356 1.5847346309
H -3.8387240375 -0.6299395409 0.7429116903
H -2.6951460941 -0.2306455976 2.0416467168
H -0.8915941359 3.2512291673 0.2278233152
