28
0 1
N 0.6474850164 -0.9232885731 -0.3158178516
H 0.2487386822 -1.0135420395 -1.2354838949
C -0.2588817867 -0.8678776657 0.8196598056
H -0.1235587217 -1.7574563038 1.4347288620
C 0.0273574269 0.3500558322 1.7084690831
C -1.7153451104 -0.8741148381 0.3754960111
H 1.0732060879 0.3024293496 2.0047451099
H -0.5827530843 0.2557548687 2.6068994481
C -0.2793356881 1.7051340959 1.0597248412
O -2.5774098257 -1.3972865373 1.0700313310
H -1.3395615315 1.8022060817 0.8379768267
H 0.0007582449 2.4923616739 1.7584518262
C 0.4798330641 1.9313009209 -0.2163207830
O 1.7776511551 2.2019095950 0.0117177479
O 0.0118344716 1.8902530094 -1.3393674417
C 1.9571323196 -1.2735854068 -0.1451526042
C 2.7387414138 -1.4559279773 -1.4243859470
O 2.4580718053 -1.4215112012 0.9610353226
H 2.8996449696 -2.5200424260 -1.5882165361
H 3.7121749118 -0.9891089274 -1.3034999500
H 2.2344738324 -1.0354679023 -2.2916270475
N -1.9888462973 -0.2667898874 -0.8130115752
C -3.3779359780 -0.1334219693 -1.2147743510
H -1.3380401028 0.4303793054 -1.1569349444
H -3.9357532971 0.5118555393 -0.5356663500
H -3.4120045443 0.2795131414 -2.2182730501
H -3.8506355645 -1.1109985627 -1.2085317840
H 2.1860771308 2.3090208045 -0.8609661048
