28
0 1
N 1.3462779357 0.8762663696 -0.1779518062
H 2.1635317306 0.5379072280 -0.6626065891
C 0.8030327158 -0.0065114688 0.8475368245
H 1.1899535620 0.2700045744 1.8297151080
C -0.7285878478 0.0602408724 0.9213321518
C 1.2242830672 -1.4482166488 0.6092222709
H -1.0073872567 1.0752912621 1.1915707980
H -1.0415137429 -0.6125620688 1.7205996697
C -1.4143656450 -0.3368800112 -0.3874832671
O 1.2785454896 -2.2496885255 1.5299553960
H -1.2415566972 -1.3854075503 -0.6190299078
H -1.0415405613 0.2884775949 -1.1985212015
C -2.8982070111 -0.1467795015 -0.2619973336
O -3.2395656754 1.1586561714 -0.3853620033
O -3.7067805651 -1.0191452549 -0.0453258695
C 1.2950712910 2.2423081824 -0.0103843510
C 2.1385466241 3.0306347341 -0.9842328266
O 0.6171668520 2.7760695581 0.8525980257
H 3.0157992726 3.4065650993 -0.4603020580
H 1.5635363850 3.8865105839 -1.3250820645
H 2.4598974885 2.4422582731 -1.8401786464
N 1.5171706135 -1.7868676081 -0.6807754633
C 1.7439521718 -3.1836109431 -1.0073598059
H 1.1786603019 -1.1770033948 -1.4064133453
H 0.8358233362 -3.7768706806 -0.9010651385
H 2.1076750035 -3.2530339030 -2.0279341144
H 2.4896775591 -3.5868515485 -0.3296045672
H -4.1972303974 1.1911186042 -0.2412688854
