28
0 1
N -1.2425812194 -1.1738657838 -0.3921805148
H -1.0188959284 -1.5817815316 -1.2844057310
C -0.2888932887 -0.2482471163 0.2024986503
H -0.4235131444 -0.3210159064 1.2828261092
C 1.1216888807 -0.6442836861 -0.1896198570
C -0.6201204265 1.1809744688 -0.2487759879
H 1.2405744034 -0.5319792524 -1.2665638334
H 1.2653640264 -1.6952786451 0.0669115591
C 2.1601408837 0.2175579103 0.5221443096
O 0.0099513648 1.7501449849 -1.1356860042
H 2.0131893234 0.2075027537 1.6000347596
H 2.0672209252 1.2439085761 0.1657209981
C 3.5700293863 -0.2317242853 0.2672201383
O 3.8005929763 -0.4313107029 -1.0542465942
O 4.4238330079 -0.3958789162 1.1072691147
C -2.4648457624 -1.3949235455 0.1527171840
C -3.3312800619 -2.3998464957 -0.5612128628
O -2.8393907887 -0.8243494215 1.1770294279
H -4.2800876953 -1.9285737888 -0.8048243939
H -3.5361633328 -3.2217737643 0.1208209608
H -2.8776995379 -2.7918329565 -1.4678750097
N -1.6682966383 1.7204267895 0.4103430856
C -2.2129219199 3.0029875356 0.0181153489
H -2.2116878458 1.0892854959 0.9870666297
H -2.6965632889 3.4664336386 0.8730810281
H -1.3974889287 3.6327000857 -0.3239405385
H -2.9353542316 2.9084480368 -0.7930724947
H 4.7313018614 -0.6940614775 -1.1134234816
