28
0 1
N -1.8997768303 0.3231079825 -0.2111828987
H -1.8958826238 1.2223583284 -0.6610606341
C -0.6933004735 -0.1315450691 0.4614178443
H -0.9620283382 -0.4444742725 1.4697888856
C -0.0764162883 -1.3247994495 -0.2719173489
C 0.2481758720 1.0546348948 0.6220812617
H 0.0560072661 -1.0972985501 -1.3304645546
H -0.8031383949 -2.1329810393 -0.2115917561
C 1.2492325982 -1.7816551549 0.3419492077
O 0.4724381243 1.5727201422 1.7055488994
H 1.2049006364 -1.7686272251 1.4289947696
H 1.4534958543 -2.8049064876 0.0237186734
C 2.4442076927 -0.9665485867 -0.0717831685
O 2.5609035816 -0.9093057378 -1.4309927748
O 3.2472623891 -0.4403598347 0.6608726969
C -3.0784289108 -0.3441313875 -0.0487699561
C -4.2832373989 0.3121812210 -0.6776692840
O -3.1476928158 -1.3954488197 0.5741162132
H -4.8844967865 0.7598310455 0.1115544343
H -4.8831019558 -0.4530116056 -1.1612335922
H -4.0197932708 1.0812506674 -1.3998989031
N 0.7758060326 1.5255316724 -0.5452522404
C 1.8153936332 2.5378314719 -0.4916441916
H 0.7601754849 0.9107120951 -1.3419406318
H 2.0246665687 2.8837925028 -1.4996343638
H 1.4689459591 3.3725478362 0.1098020552
H 2.7250226391 2.1449359191 -0.0354417515
H 3.3850517553 -0.4248165588 -1.5908148911
