28
0 1
N 1.1265091740 -1.0395671414 0.0567905316
H 0.5737957705 -1.4653555605 0.7846651204
C 0.4936147518 -0.1525153872 -0.8881274809
H 0.9100463121 -0.3309558765 -1.8791903512
C -1.0057581740 -0.4380620057 -0.9816131108
C 0.7017197490 1.3522890233 -0.6840743963
H -1.1476741002 -1.4880617648 -1.2364808480
H -1.4036599292 0.1514516340 -1.8048116476
C -1.7734760407 -0.1027832924 0.2866863578
O 0.5390667841 2.0876217994 -1.6520756662
H -1.6531816013 0.9473630855 0.5593271911
H -1.4403603238 -0.6829744824 1.1497103394
C -3.2471308933 -0.3663654165 0.1326219282
O -3.9181985408 -0.0413286056 1.2625826524
O -3.7886463823 -0.8107978704 -0.8512442064
C 2.4734014518 -1.2357707360 0.2039540993
C 3.3506984594 -0.5928222294 -0.8403820777
O 2.9169311777 -1.8944981262 1.1350542065
H 3.2264194559 0.4898390594 -0.8451327504
H 3.1025318572 -0.9573163522 -1.8363051134
H 4.3815344273 -0.8383387961 -0.6115620354
N 1.0424411263 1.8597539816 0.5324809525
C 1.1962453082 1.2365676034 1.8378347259
H 1.1383168020 2.8629157198 0.4901865274
H 1.2489871116 2.0371483651 2.5710529333
H 0.3428658646 0.6154849472 2.0961120433
H 2.1014710347 0.6398674725 1.9198283556
H -4.8488286327 -0.2399300477 1.0795697198
