28
0 1
N 1.2541741415 -1.1921276911 0.3479213044
H 1.0181485449 -1.6260943420 1.2245404426
C 0.2992934240 -0.2653340930 -0.2430019967
H 0.4573828252 -0.3082707449 -1.3217463690
C -1.1130408482 -0.6916568484 0.1089991556
C 0.5996618018 1.1564037734 0.2514408363
H -1.2559222353 -0.6088893021 1.1857019307
H -1.2356188688 -1.7376499416 -0.1772076920
C -2.1492734900 0.1731840085 -0.6023612304
O -0.0571298575 1.6933674962 1.1390496901
H -1.9798451788 0.1930511670 -1.6768113737
H -2.0791394958 1.1912353117 -0.2180173057
C -3.5572696878 -0.3028134777 -0.3888226300
O -3.8122002378 -0.5397275541 0.9219601783
O -4.3909027406 -0.4575401575 -1.2506376354
C 2.4906564893 -1.3814057300 -0.1764798727
C 3.3570294439 -2.3917912667 0.5297733531
O 2.8778009806 -0.7792665047 -1.1777797296
H 4.2933822486 -1.9132895947 0.8053833776
H 3.5883750556 -3.1927782546 -0.1685174256
H 2.8906116901 -2.8135841379 1.4163229530
N 1.6531072620 1.7277349889 -0.3714183786
C 2.1702229805 3.0074789248 0.0647783081
H 2.2177312281 1.1195805680 -0.9524271095
H 2.8770091117 2.9024850297 0.8883689657
H 2.6645028774 3.4997521139 -0.7676952477
H 1.3385366758 3.6163271219 0.4054729381
H -4.7399021403 -0.8173128631 0.9547385629
