28
0 1
N 1.8336684960 -0.0795575917 -0.0763425740
H 2.3241152168 0.6832057204 -0.5176285636
C 0.3782401575 -0.0560071975 -0.2089954520
H 0.0548225995 -0.6389500168 -1.0701974519
C -0.2994753644 -0.6207236142 1.0497594050
C -0.0977266907 1.3694729671 -0.4265313272
H 0.1568730536 -0.1528617527 1.9244339960
H -0.0809751880 -1.6842809232 1.0895397980
C -1.8026304868 -0.3883232302 1.0895950580
O -1.0648980416 1.6253337443 -1.1326181974
H -2.2145719079 -0.8059559681 2.0102450598
H -2.0653511821 0.6686446584 1.0875630039
C -2.5333007030 -1.0455939900 -0.0500115775
O -3.8213404575 -0.6362563498 -0.1006905837
O -2.0716388980 -1.8575191382 -0.8176338172
C 2.5247388883 -1.2690002749 -0.0383876196
C 4.0201779189 -1.1322802209 -0.2123196489
O 1.9828062652 -2.3488427357 0.1300408742
H 4.2852723113 -1.4755480319 -1.2109926185
H 4.5126415106 -1.7836218484 0.5036327939
H 4.3733711428 -0.1122616759 -0.0814949007
N 0.5966137110 2.3220488112 0.2556496935
C 0.1486345716 3.7001253580 0.2670511348
H 1.2607901218 2.0103859816 0.9444225854
H -0.6218999902 3.8726255992 1.0185775364
H 0.9929002706 4.3552361178 0.4618278306
H -0.2707950711 3.9277805821 -0.7077291175
H -4.2111812543 -1.1080529800 -0.8516653199
