28
0 1
N -1.0425358492 -1.1532197029 -0.2026786157
H -0.4196126137 -1.6695547286 -0.8071070567
C -0.4714744217 -0.2610716362 0.7842124950
H -0.8835978753 -0.4778276865 1.7700027942
C 1.0434308235 -0.4534665395 0.8665978757
C -0.7522818001 1.2243534881 0.5377683797
H 1.2491900317 -1.5059017707 1.0705278664
H 1.4080292961 0.1359676798 1.7053649063
C 1.7725355729 -0.0143532427 -0.4076185276
O -0.4648608639 2.0492280030 1.3971300445
H 1.6581712565 1.0602483210 -0.5412653284
H 1.3922118438 -0.5285589400 -1.2876050365
C 3.2305123434 -0.3561407913 -0.2943313099
O 3.8897233395 0.5433416318 0.4730431329
O 3.7651826037 -1.3259173308 -0.7793570603
C -2.3310695048 -1.6404698525 -0.2048870878
C -3.2645716400 -1.0436477263 0.8184984446
O -2.6761703411 -2.4984042741 -1.0018654919
H -4.2718212897 -1.3697793177 0.5848388776
H -3.2172935876 0.0436202706 0.8267008956
H -3.0018585528 -1.3968455737 1.8155636894
N -1.2841455707 1.5217415077 -0.6685521575
C -1.5705135719 2.8817733582 -1.0707452221
H -1.4694157489 0.7499241903 -1.2874409004
H -0.9566992555 3.1772286276 -1.9197791735
H -2.6198778499 2.9948708331 -1.3348639257
H -1.3412026853 3.5236057360 -0.2256162887
H 4.8026439111 0.2222294665 0.5256737805
