28
0 1
N 1.3999671955 0.7569271473 0.0613694965
H 2.3416130601 0.5331540463 0.3397920899
C 0.3734332112 -0.2581364364 0.2562844705
H -0.2836468739 0.0595952820 1.0643130023
C -0.4871141599 -0.4695918805 -1.0006926401
C 0.9797567132 -1.5735406142 0.7142754615
H 0.0207678752 -1.1307009045 -1.7019751320
H -0.6249174761 0.4923505448 -1.4918791539
C -1.8578984923 -1.0645055315 -0.6501917126
O 0.4809755569 -2.2035357219 1.6367983172
H -2.3217532520 -1.4652801496 -1.5476088068
H -1.7500487259 -1.8565932608 0.0895790293
C -2.7670660895 0.0180318532 -0.1344070471
O -2.6900316995 0.1539283438 1.2106107843
O -3.4674095374 0.7194894844 -0.8260965212
C 1.0289775715 2.0757869996 0.0865619991
C 2.1654163542 3.0683335726 0.1115883739
O -0.1454800400 2.4163757427 0.0713842925
H 2.0086117900 3.7936029866 -0.6823796775
H 3.1410542231 2.6041513337 -0.0103571119
H 2.1373933160 3.6036318693 1.0584411252
N 2.1221321126 -2.0130778682 0.0898713046
C 2.5469864366 -1.7347673934 -1.2731832556
H 2.4001564528 -2.9119174808 0.4586991462
H 2.2970434012 -0.7154777321 -1.5441439008
H 3.6266404477 -1.8503549666 -1.3394358361
H 2.0819628021 -2.4094221964 -1.9939665460
H -3.2368581733 0.9263629305 1.4216364485
