28
0 1
N 1.0900826153 -1.0286326797 0.0532489000
H 0.5456674406 -1.4401669480 0.7954796164
C 0.4574399689 -0.1225482513 -0.8720111648
H 0.8349867253 -0.3139093509 -1.8765475844
C -1.0525750717 -0.3637051154 -0.9199671392
C 0.7163663269 1.3763218195 -0.6803838450
H -1.2302858221 -1.4065828351 -1.1816572673
H -1.4523455550 0.2613024482 -1.7179496033
C -1.7715531193 -0.0277447529 0.3892174784
O 0.5552405332 2.1098433087 -1.6499529700
H -1.6174491752 1.0144627743 0.6589917837
H -1.4197956110 -0.6645028872 1.2023925399
C -3.2524838363 -0.2434818145 0.2511400595
O -3.5418507164 -1.5612298457 0.1102980520
O -4.0978400769 0.6188598147 0.2427766212
C 2.4352935978 -1.2618840775 0.1631486495
C 3.3004179949 -0.6409348106 -0.9042854393
O 2.8851434727 -1.9348636775 1.0805676389
H 3.2034838362 0.4445344096 -0.9064905422
H 3.0160938562 -0.9994702273 -1.8927911723
H 4.3306231943 -0.9124871379 -0.7036109764
N 1.1007136049 1.8768612716 0.5249339249
C 1.2622233115 1.2512950230 1.8279787934
H 1.2251882986 2.8766523256 0.4778996655
H 1.3481854937 2.0504535747 2.5595807612
H 0.3984162320 0.6518402226 2.1018881937
H 2.1536303267 0.6319052399 1.8939138457
H -4.5042008458 -1.6068888208 0.0062571801
