28
0 1
N -1.3358002967 0.9501994782 0.5248818560
H -1.7714806387 0.8967828572 1.4371588357
C -0.3175961241 -0.0434855705 0.2409689169
H 0.1610424892 0.2367919652 -0.6956999617
C 0.7519703439 -0.0777788399 1.3404457550
C -0.9330323136 -1.4276292531 0.0059587137
H 0.3368683254 -0.5701701057 2.2215993994
H 0.9658780031 0.9568788388 1.6096184815
C 2.0486475868 -0.7717244388 0.9526047461
O -0.2588000852 -2.4509594466 0.0858325378
H 2.7083195976 -0.8646079518 1.8165920902
H 1.8562161150 -1.7804550820 0.5929916265
C 2.8096882534 -0.0255224831 -0.1028947773
O 3.9584382641 -0.6575955972 -0.4256883405
O 2.4750935160 1.0174911447 -0.6251896998
C -1.3755490264 2.2364779504 0.0187581380
C -0.5817126211 2.4935283265 -1.2357065050
O -2.0617715250 3.0898239176 0.5588057214
H -0.8531176706 1.7886241118 -2.0209006157
H 0.4865281268 2.3900761010 -1.0502252373
H -0.8018018190 3.5030930731 -1.5638873144
N -2.2429603165 -1.4132213526 -0.3249059549
C -2.9728137568 -2.6205810047 -0.6415829008
H -2.6937317815 -0.5135464079 -0.3429284285
H -2.2780729949 -3.4507143468 -0.5606644478
H -3.7955223846 -2.7738567742 0.0542265246
H -3.3677548320 -2.5810973843 -1.6549110553
H 4.3765955654 -0.1073067253 -1.1048871040
