28
0 1
N -0.6165150479 -0.4065994186 -0.2122982326
H 0.0176355487 -0.5032722974 -0.9921749519
C -0.2974933128 0.5685800046 0.8106417821
H -1.0605381961 0.4360807287 1.5801009585
C 1.0692310406 0.3253477307 1.4468394910
C -0.4070352851 1.9925926224 0.2604529054
H 1.0245470344 -0.6040093553 2.0158687143
H 1.2580020438 1.1367283600 2.1471675165
C 2.2467185934 0.2747316619 0.4581334354
O 0.5440826091 2.7694380432 0.2796389011
H 2.1609716698 1.0845129379 -0.2597663164
H 3.1714039345 0.3995328273 1.0181001491
C 2.3319342146 -1.0299494793 -0.2778890810
O 2.9347297889 -1.9847071094 0.4608011099
O 1.9077767796 -1.2536654797 -1.3954991463
C -1.5262444549 -1.3988520477 0.0033071534
C -1.6260316749 -2.4140057385 -1.1083117414
O -2.2405503619 -1.4385788399 0.9996742338
H -0.7615114842 -2.4000620313 -1.7679858567
H -2.5219857373 -2.2070060908 -1.6915260743
H -1.7389030054 -3.3999336979 -0.6667370320
N -1.6133298221 2.3538428542 -0.2411572208
C -2.8334617886 1.5748386110 -0.3018583258
H -1.6190630476 3.2860965472 -0.6244433765
H -2.9349803211 1.0499574660 -1.2519344428
H -2.8668205117 0.8402960373 0.4973223938
H -3.6816602097 2.2443166974 -0.1795879043
H 2.9140970039 -2.7892115438 -0.0796790413
