28
0 1
N 0.4972983928 0.5354511520 -0.1983447495
H -0.1479151419 0.5871438186 -0.9734109166
C 0.4097236294 -0.6071017934 0.6882544049
H 1.1297071677 -0.4073787233 1.4842401401
C -0.9724314179 -0.7540487874 1.3206320048
C 0.8286091589 -1.8907031837 -0.0324554558
H -1.1310686720 0.0828688037 2.0017327747
H -0.9716020449 -1.6687378553 1.9103561296
C -2.1386824974 -0.8406060671 0.3211615035
O 0.0736847329 -2.8545447808 -0.1303232150
H -1.8804510116 -1.5143226603 -0.4899484602
H -3.0087092471 -1.2361697113 0.8415102404
C -2.5163360599 0.4951145350 -0.2484134192
O -3.3107764206 1.1921604055 0.5903824193
O -2.1601647421 0.9460695237 -1.3202292231
C 1.1657141684 1.6688772051 0.1583398141
C 1.0300393865 2.8128243073 -0.8159135810
O 1.8603530593 1.7395005437 1.1668254609
H 1.9455048900 2.8841337562 -1.4011981749
H 0.9244184855 3.7355842856 -0.2527621525
H 0.1855889345 2.6914774561 -1.4904034335
N 2.0814720202 -1.9103256122 -0.5493792286
C 3.0979210179 -0.8797141205 -0.4867496161
H 2.2911944089 -2.7623088408 -1.0455451080
H 4.0743383423 -1.3551792661 -0.4307787532
H 3.0738380964 -0.2299007345 -1.3617427112
H 2.9730613799 -0.2627105478 0.3981631730
H -3.4728970160 2.0428908921 0.1547821330
