29
0 1
N 1.7541210617 -0.2362968363 -0.0219030327
C 0.3178512119 -0.0015912373 -0.1384602858
C 0.0511544318 1.4783716634 -0.3460715135
O -0.8433920962 1.8897360829 -1.0829912752
C -0.4184863748 -0.4751365163 1.1243273795
C -1.9220161463 -0.1894302280 1.1018578726
C -2.6262451478 -0.9978829696 0.0258503483
O -2.9982068149 -2.1454021756 0.2237080898
H 2.3570633982 0.4890861989 -0.3783816171
H -0.0813916858 -0.5295121328 -1.0049669686
H -0.2507471569 -1.5454741109 1.2242544425
H 0.0345195494 0.0184235253 1.9870672175
H -2.3474103254 -0.5044337664 2.0519592542
H -2.1146166090 0.8758715640 0.9738237491
C 2.2471811800 -1.5183402470 -0.1310255727
O 1.5266932628 -2.5017608783 -0.1089696154
N 0.8438386352 2.3160502625 0.3666256974
H 1.4308597348 1.9127251914 1.0777774230
C 0.5897806267 3.7441626392 0.3774873104
H -0.2624463157 3.9976113378 1.0071560613
H 1.4732334278 4.2600644945 0.7407836979
H 0.3716554413 4.0672862566 -0.6354392452
C 3.7481406063 -1.6084534145 -0.2720671664
H 3.9855028040 -1.8762910808 -1.3002279250
H 4.1079470138 -2.4071769268 0.3697990401
H 4.2550742480 -0.6806059244 -0.0187248583
N -2.8018418494 -0.3460973333 -1.1562415423
H -3.1489465689 -0.8896259781 -1.9276630147
H -2.3072945427 0.5157935397 -1.3384479509
