29
0 1
N -0.9510199590 -1.3371012505 -0.3260841659
C -0.2013254837 -0.5232381454 0.6055291858
C -0.5117587508 0.9771269816 0.5061426189
O 0.1794461104 1.7956827863 1.1144192365
C 1.3029755542 -0.7063058066 0.4248736967
C 1.8042390992 -0.1816875316 -0.9339983674
C 3.1000276986 0.6008387062 -0.8010695177
O 4.1534477160 0.2254240754 -1.2929124758
H -0.5247620626 -1.5559606819 -1.2158658592
H -0.4651640020 -0.8174215041 1.6211025997
H 1.7875907123 -0.1625964772 1.2322957948
H 1.5494431615 -1.7603577400 0.5436877344
H 1.0596323541 0.4850321334 -1.3773756131
H 1.9920308245 -0.9893835271 -1.6362970872
C -2.0941585573 -2.0591412369 -0.0726524699
O -2.5706997249 -2.7967338217 -0.9212865752
N -1.5636662553 1.3048241353 -0.2659066210
H -2.0051484238 0.5532144446 -0.7700540696
C -1.9816867559 2.6766130584 -0.4670458062
H -1.4353238103 3.2916979302 0.2407953432
H -1.7562358449 3.0118915438 -1.4777885377
H -3.0492719004 2.7766879308 -0.2876416371
C -2.7185875887 -1.8677938348 1.2882744765
H -2.8359189419 -0.8140653966 1.5360841289
H -2.1000234110 -2.3275002866 2.0586455427
H -3.6874380680 -2.3542590675 1.2802211094
N 2.9687724832 1.7569303050 -0.0956368399
H 3.8066092779 2.2691105540 0.1157444367
H 2.1154095486 1.9722297235 0.3990287389
