29
0 1
N -1.7839543914 -0.7939621911 -0.5341965286
C -0.5829081615 -0.7948122489 0.2722832713
C 0.0074850919 0.5925431671 0.5106595017
O 0.7239494527 0.7950787566 1.4905933570
C 0.4520852300 -1.6831787242 -0.4288135697
C 1.8351108267 -1.6498657658 0.2029300795
C 2.6311035506 -0.4325811549 -0.2378397754
O 2.4572405589 0.0995532024 -1.3257884133
H -1.7766607215 -1.3062579288 -1.4042791620
H -0.7756367696 -1.2018114537 1.2667976729
H 0.0629376335 -2.7018045737 -0.4279484653
H 0.5503482252 -1.3570613660 -1.4661704892
H 2.4032673355 -2.5201511266 -0.1314171960
H 1.7787246963 -1.6940694792 1.2898019427
C -3.0400757192 -0.4092003363 -0.1254980340
O -4.0110828382 -0.5612218994 -0.8507841009
N -0.2799146103 1.5186601819 -0.4227797048
H -0.7986253330 1.2042142874 -1.2261187399
C 0.4269233251 2.7812419203 -0.4685815443
H -0.1997632027 3.5332598631 -0.9393035969
H 0.6498354443 3.0817060450 0.5504650632
H 1.3616897582 2.6824862277 -1.0202486959
C -3.1233034341 0.2084618200 1.2471917706
H -2.4512248774 1.0601287432 1.3369726690
H -2.8441020932 -0.5154565923 2.0121129812
H -4.1461422918 0.5275357548 1.4122461065
N 3.6191179450 -0.0508988452 0.6221106189
H 4.0552737606 0.8298021810 0.4025775228
H 3.4723816094 -0.2322284645 1.5996474590
