29
0 1
N -1.6854293229 -0.5259550149 -0.0119600874
C -0.4935152872 0.2472323837 -0.2541165969
C -0.9131182360 1.6882914905 -0.5187988095
O -2.0841690249 1.9960388937 -0.7302947669
C 0.3704066293 -0.2962494330 -1.4087795536
C 1.4538976428 -1.2354991360 -0.8930349611
C 2.2626751560 -0.4930610254 0.1499779873
O 2.6355007637 0.6668824609 -0.0225488935
H -2.5480575613 -0.0637850197 -0.2652586325
H 0.0950871238 0.2377535489 0.6650026498
H -0.2803455975 -0.8020221636 -2.1209435810
H 0.8520295059 0.5324560151 -1.9242795498
H 2.1296845900 -1.5197448447 -1.7009671571
H 1.0195476338 -2.1368575980 -0.4690575281
C -1.6765941187 -1.5912468446 0.8229866021
O -0.6387672662 -2.0491429528 1.3038374846
N 0.1241175579 2.5502102986 -0.4980487025
H 1.0485626938 2.1681341547 -0.3399025445
C -0.0356271101 3.9594711193 -0.7835386292
H 0.4073740061 4.5603622935 0.0073657153
H 0.4265092825 4.2263253423 -1.7328294545
H -1.0998731755 4.1654835322 -0.8380500032
C -3.0243968247 -2.1999077985 1.1181964845
H -3.8426575359 -1.6870521171 0.6198574857
H -3.1838933320 -2.1777541836 2.1936929199
H -3.0099583781 -3.2422430885 0.8089639812
N 2.5398263661 -1.1961642461 1.2751975126
H 2.9624314710 -0.6868443796 2.0335645701
H 1.9350813483 -1.9662146872 1.5079960583
