29
0 1
N -1.1587607282 1.2116553677 0.0011315907
C -0.3575900758 0.0054741393 -0.1705582158
C -1.2535733382 -1.1907296016 -0.4435251535
O -0.9519955616 -2.0590308282 -1.2477251703
C 0.4988164522 -0.2733854102 1.0761729782
C 1.6243995300 -1.2605851849 0.8022857740
C 2.8107391946 -0.7661454440 -0.0151864058
O 3.7003480080 -1.5430342558 -0.3327501843
H -2.1404893543 1.1613123717 -0.2184553752
H 0.2902085439 0.1153050209 -1.0402268801
H 0.8979964420 0.6707250253 1.4425779104
H -0.1502409474 -0.6644385005 1.8625785624
H 2.0468546397 -1.6117647197 1.7439326190
H 1.2504794243 -2.1450169982 0.2857119552
C -0.5651017482 2.4363954825 -0.0426691845
O 0.6555779432 2.5720156181 -0.0673054781
N -2.4100636562 -1.2240872551 0.2851783006
H -2.4574212589 -0.6408946410 1.1045502585
C -3.2474801032 -2.4096316344 0.2390834694
H -4.2130395268 -2.1794852497 0.6791263626
H -3.3825099899 -2.6987729165 -0.7981471647
H -2.7956639954 -3.2483848636 0.7682370370
C -1.4988939639 3.6188332306 -0.0513187988
H -1.1648267841 4.3294606716 0.6995219746
H -2.5331925517 3.3455326137 0.1409572173
H -1.4305651580 4.1061842615 -1.0218872409
N 2.8429759666 0.5541466181 -0.3298414948
H 3.6246854510 0.8566997768 -0.8848114862
H 2.0914541461 1.2070733056 -0.1587737771
