29
0 1
N -1.7155972303 -0.1202565325 -0.6156628471
C -0.3181641837 0.1879503879 -0.3694985857
C -0.1826914450 1.7087074767 -0.4086860056
O 0.2102931513 2.2974355954 -1.4112706719
C 0.6109912483 -0.4716342721 -1.3802008297
C 2.0802185500 -0.2167296096 -1.0842290383
C 2.5060657863 -0.7724279485 0.2606385997
O 1.8435801555 -1.5879800108 0.8901379737
H -2.1349246871 0.2884889165 -1.4405179575
H -0.0699434183 -0.1734808224 0.6249166882
H 0.4140873659 -1.5431269592 -1.3650190534
H 0.3724220366 -0.0902839325 -2.3721091583
H 2.6995515837 -0.7002216127 -1.8431008260
H 2.2989058470 0.8502983488 -1.1357748818
C -2.3655766922 -1.2526575160 -0.1798195908
O -3.4452093629 -1.5771621063 -0.6511418251
N -0.5502369961 2.3630127508 0.7206336705
H -0.5257204664 3.3670797498 0.6425061906
C -1.1090696428 1.7645517617 1.9173681166
H -0.3872105662 1.1230495327 2.4216565870
H -1.3791756629 2.5634793533 2.6013998635
H -2.0035467361 1.1867478755 1.6920873004
C -1.6961337974 -2.0185543787 0.9356950804
H -0.6748815438 -2.3039250081 0.6884745725
H -2.2933129469 -2.9018013246 1.1327244867
H -1.6510746613 -1.4113470035 1.8399918352
N 3.6918157531 -0.2928295386 0.7230127562
H 4.0778336215 -0.6997560308 1.5563417267
H 4.2598029404 0.3175248576 0.1670068233
