29
0 1
N 1.4625464024 -0.9706774108 0.4140095453
C 0.4213670769 -0.2041182243 -0.2422409729
C 0.1693759694 1.0654514750 0.5730385718
O -0.5100511041 1.0083095455 1.6026639232
C -0.8690041997 -1.0076271909 -0.3088815418
C -2.0123187100 -0.2128424138 -0.9627372026
C -3.3304655023 -0.3941769070 -0.2315167600
O -4.2935108332 -0.9608322286 -0.7268829606
H 1.2438435165 -1.3731822947 1.3105803687
H 0.7893631344 0.0228380173 -1.2398342536
H -0.6786757570 -1.9296739274 -0.8555314200
H -1.1416609502 -1.2782960527 0.7111409480
H -2.1656035567 -0.5184590710 -1.9935189305
H -1.7742535942 0.8535162948 -0.9617053904
C 2.7501409317 -0.9968173359 -0.0291516266
O 3.1116131622 -0.4191986584 -1.0488620409
N 0.7333186744 2.2149183559 0.1555587980
H 0.5143801076 3.0035795338 0.7457095286
C 1.5144684817 2.4469212101 -1.0501378513
H 2.1234528216 3.3323645108 -0.8920499670
H 2.1785675408 1.6096565331 -1.2439643103
H 0.8769374812 2.6193492779 -1.9171606464
C 3.7053292708 -1.8006173881 0.8173585935
H 4.2204071106 -2.5093814981 0.1743463915
H 3.2166204621 -2.3357093629 1.6274693253
H 4.4522578677 -1.1264429257 1.2307497440
N -3.3339182802 0.1377546084 1.0204452712
H -4.1417527654 -0.0226524687 1.5949579598
H -2.4868127592 0.5031729962 1.4308219060
