29
0 1
N -1.0935008019 -1.1165562660 -0.0470187718
C -0.3503646805 -0.1747246306 0.7794180366
C -0.3756198250 1.2506638529 0.1961804574
O 0.6541451815 1.8492466955 -0.1257804275
C 1.0774312581 -0.6588565315 0.9623649505
C 1.8012411610 -0.9336937505 -0.3701949536
C 3.2618116598 -0.5266244151 -0.2951187674
O 4.1754283239 -1.3359185961 -0.2252659758
H -0.5711760497 -1.7185828622 -0.6605493778
H -0.8630541079 -0.1348034760 1.7431502801
H 1.6110144950 0.1092807959 1.5183909766
H 1.0726954329 -1.5599091971 1.5748589959
H 1.3300893434 -0.3651052692 -1.1722629500
H 1.7815911115 -1.9915861492 -0.6228351235
C -2.4364600802 -1.2687087910 0.0295531717
O -3.1416119142 -0.5400060996 0.7301373838
N -1.6118873375 1.7683754715 0.1012229722
H -2.3789568524 1.1788313764 0.4108156896
C -1.8621370985 3.0859153754 -0.4422678855
H -2.5047559741 3.0264092788 -1.3185962889
H -2.3358949881 3.7251590858 0.3000883055
H -0.9072173497 3.5162411905 -0.7259808082
C -3.0198739085 -2.3920624711 -0.7868926887
H -2.2926018761 -2.8754394921 -1.4341358280
H -3.8361217892 -1.9984421784 -1.3865892666
H -3.4365272638 -3.1304047412 -0.1050738506
N 3.4359058142 0.8198461939 -0.3010533601
H 4.3618792575 1.1793287342 -0.1550172875
H 2.6315058586 1.4293988661 -0.2664976081
