19
0 1
C 2.7820007894 -1.0281162413 -0.2475086205
H 3.1050454729 -0.5839841095 -1.1916643894
H 3.6866418079 -1.2362054144 0.3280008251
N 2.0276974176 -2.2258675676 -0.4749545324
H 1.0806476496 -2.2220593228 -0.1299906960
C 1.9012252359 -0.0479028175 0.5106990149
O 0.7422684557 -0.3138538475 0.8091468334
C 2.5519930907 -3.2515900764 -1.1888458950
O 3.6912986974 -3.2106019619 -1.6408116496
N 2.5070951189 1.1244372153 0.8111585788
H 3.4688730207 1.2414932015 0.5447877252
C 1.8369528758 2.1821199244 1.5377815446
H 2.2728803229 2.3224498645 2.5253380252
H 1.8877370630 3.1189971123 0.9876398423
H 0.7983265609 1.8886518921 1.6492995549
C 1.6460228239 -4.4442343046 -1.3763033801
H 1.5707775540 -4.6580188387 -2.4393835616
H 0.6508744754 -4.2937878237 -0.9654902570
H 2.1044465673 -5.3065308844 -0.8976979627
