19
0 1
C 0.2755454765 0.3278315671 1.2033855333
H 0.8428588218 -0.1170753525 2.0209283230
H -0.2131904550 1.2170567353 1.5934995299
N -0.6982747376 -0.6403332100 0.7514675592
H -0.5342556343 -1.6204576148 0.9128015123
C 1.2316585272 0.8192270184 0.1183721134
O 1.2986293978 2.0082968991 -0.1708884918
C -1.7465163780 -0.3924042473 -0.1000173870
O -2.4140562061 -1.3116340218 -0.5509243030
N 1.9935639169 -0.1186328676 -0.5030429579
H 2.5474829692 0.2498147832 -1.2598498506
C 1.9927601414 -1.5487563695 -0.2827443820
H 2.9486850018 -1.9503177098 -0.6082844502
H 1.1966602437 -2.0569903334 -0.8266379583
H 1.8953030402 -1.7732194266 0.7769745213
C -2.0331167661 1.0588091163 -0.3908331400
H -2.8165727021 1.1024152454 -1.1386209918
H -1.1510857618 1.5931287571 -0.7381923331
H -2.3781648956 1.5546830314 0.5166341534
