19
0 1
C 0.2121491606 -1.9762572860 -2.0072682965
H 0.0400793804 -1.2451238891 -2.7951518794
H -0.1815297217 -2.9218874637 -2.3750118380
N 1.6296779545 -2.0553569228 -1.7443797055
H 2.2379002008 -1.3424982490 -2.1155956840
C -0.6712116684 -1.5665578777 -0.8299590564
O -1.8894899406 -1.6028470936 -0.9387007914
C 2.2972584066 -3.1444441039 -1.2357845182
O 3.5145976273 -3.1489951124 -1.1404176373
N -0.0060372585 -1.1777444818 0.2809664646
H 0.9986642862 -1.1663742945 0.2326994919
C -0.6952196155 -0.7312661548 1.4715242330
H -0.5963585058 0.3443763403 1.6093750992
H -1.7463253386 -0.9734605413 1.3485396158
H -0.3064738369 -1.2396477530 2.3506618862
C 1.4316911002 -4.3019128485 -0.8040168822
H 0.6086352861 -3.9755619282 -0.1708860779
H 2.0562395543 -5.0061570445 -0.2663259164
H 1.0067559291 -4.7998852954 -1.6751715076
