29
0 1
N -1.8646997565 -0.6543866821 -0.3532277247
H -2.2871362266 -0.4503470805 -1.2510341279
C -0.5888372604 -0.0159717155 -0.0896822236
H -0.2880819466 -0.2877340249 0.9230617814
C 0.5285880224 -0.4630625566 -1.0530221896
C -0.7436542792 1.5091572774 -0.0765210763
H 0.4710505209 0.1305176408 -1.9683023454
H 0.3298860974 -1.5001084323 -1.3249965601
C 1.8909642009 -0.4153461492 -0.4593455766
O 0.2024507747 2.2582913064 -0.3228172739
N 2.4994999870 0.7397149331 -0.0451234683
C 2.8043729150 -1.4136747294 -0.1752582784
H 2.0365120917 1.6397645984 -0.0919730166
C 3.7167091804 0.4080281809 0.4594395294
N 3.9390275988 -0.8966273249 0.3936945622
H 2.6980928169 -2.4685033198 -0.3682542776
H 4.3965086261 1.1411936745 0.8578620846
C -2.1939962777 -1.9301131276 0.0777076838
C -1.4212146923 -2.4598964961 1.2594240740
O -3.0907952414 -2.5540604690 -0.4629843007
H -1.4759082709 -1.7778347838 2.1066892371
H -0.3690176087 -2.5963445651 1.0102854313
H -1.8514941977 -3.4159296463 1.5352374732
N -1.9743115666 1.9470121919 0.2481628687
C -2.2933745278 3.3533746302 0.3759426819
H -2.6728837453 1.2424883404 0.4207871626
H -3.1160228835 3.6215565630 -0.2829500647
H -2.5629321862 3.5985182405 1.4012404766
H -1.4094741647 3.9164475253 0.0949474577
