29
0 1
N 0.5344316216 0.8436579723 -0.3820115204
H 0.3651518232 0.7247970921 -1.3709144748
C 0.8199933648 -0.3723441420 0.3549991522
H 0.6717045339 -0.1115688747 1.4043206679
C -0.1419872130 -1.5099436057 -0.0349576559
C 2.2649229153 -0.8449069630 0.2306307411
H -0.0196083785 -2.3214216541 0.6810105472
H 0.1484993790 -1.9104219936 -1.0079874794
C -1.5444458761 -1.0300934479 -0.1356184637
O 2.5763858116 -1.9838764874 0.5571927194
N -2.2152769874 -0.3987639675 0.8831639253
C -2.4322931309 -1.0047410867 -1.1938801640
H -1.8210119517 -0.1252904504 1.7698574964
C -3.4346109385 -0.0186940909 0.4107049148
N -3.6049886274 -0.3810943071 -0.8505162238
H -2.2802249356 -1.4220051935 -2.1755182967
H -4.1498841002 0.5057632556 1.0205069065
C -0.2299016590 1.8260512949 0.2173079146
C -0.9064477389 2.7664742005 -0.7423906684
O -0.3578105934 1.9044606631 1.4306410277
H -0.3337755725 2.9061635840 -1.6567288140
H -1.0704701561 3.7217041412 -0.2550377894
H -1.8747291262 2.3347718123 -1.0030515929
N 3.1313068978 0.0813854243 -0.2399727873
C 4.5525794808 -0.1730220201 -0.3249194234
H 2.7599804641 0.9990310058 -0.4183209698
H 4.9305190785 0.0844078019 -1.3117789636
H 5.1025904003 0.3923355970 0.4259188964
H 4.7030062146 -1.2332465603 -0.1469396221
