29
0 1
N 0.5788918933 1.1018869327 0.1235335364
H -0.3069516781 1.4157498276 -0.2493307506
C 0.5354655613 -0.0284788684 1.0335481113
H 1.2773838374 0.1563049920 1.8136276247
C -0.8626860015 -0.1109953886 1.6540966296
C 0.9304945628 -1.3389372054 0.3316266302
H -0.9397776232 -1.0475106047 2.2051419955
H -0.9701637555 0.7082399016 2.3646935587
C -1.9499764882 0.0106065005 0.6454960791
O 0.1446070368 -2.2816036634 0.1885935274
N -2.2196229747 -0.9525123233 -0.2905685200
C -2.8328629827 1.0366175736 0.3546120917
H -1.6612737265 -1.7961159883 -0.3668365013
C -3.2207592531 -0.4912910265 -1.0842047713
N -3.6237074304 0.7177308945 -0.7196948467
H -2.9479134695 1.9674482153 0.8857362198
H -3.6199201550 -1.0640764224 -1.9033863012
C 1.7174284035 1.7679270407 -0.1738716621
C 1.5500146814 3.0036672008 -1.0180644749
O 2.8231493838 1.3966554625 0.2287888725
H 1.7823839404 3.8723257065 -0.4051226184
H 0.5457760388 3.1105306910 -1.4200838877
H 2.2695116748 2.9705217595 -1.8314740377
N 2.2074737930 -1.3513790171 -0.0806584670
C 2.7777229032 -2.4679152523 -0.8036761478
H 2.7406297304 -0.4977407431 0.0641767202
H 3.7129720307 -2.7765143234 -0.3426456366
H 2.0689344464 -3.2887033779 -0.7654890394
H 2.9655886206 -2.2068804941 -1.8440479344
