29
0 1
N -2.1312040732 -0.0229296782 -0.1257866379
H -2.5233918528 0.9027602042 -0.1685576042
C -0.7471371805 -0.1682826205 0.2905367142
H -0.7120435012 -0.7613757093 1.2041658288
C 0.0948058958 -0.8681872555 -0.7940033888
C -0.1471100502 1.1857842619 0.6366531114
H -0.2515876033 -1.8987058682 -0.8722303646
H -0.0954720748 -0.3928370564 -1.7577342963
C 1.5483326843 -0.7730751897 -0.5067368192
O 0.3657148177 1.4132209370 1.7214579714
N 2.1504243945 -1.3546697790 0.5809373135
C 2.5656460824 -0.0733778017 -1.1252403268
H 1.6929332616 -1.9177934464 1.2786453821
C 3.4638165224 -0.9938647117 0.5764053281
N 3.7520162001 -0.2175156612 -0.4538145876
H 2.4944416293 0.5103419822 -2.0281927204
H 4.1544061687 -1.3217884273 1.3337832638
C -2.9712785638 -1.0996139427 -0.0868124558
C -4.4233217345 -0.7979770706 -0.3633608068
O -2.5641231943 -2.2269825736 0.1600652595
H -4.9781278675 -0.8788071180 0.5695100086
H -4.8098375789 -1.5491921500 -1.0458967715
H -4.5789789483 0.1921700621 -0.7845279419
N -0.2440808191 2.1223542631 -0.3515559244
C 0.4973795868 3.3647620249 -0.2171908881
H -0.4243523210 1.7846934877 -1.2826060707
H 1.5727771946 3.1945589464 -0.2719540705
H 0.1923753696 4.0466443572 -1.0051917060
H 0.2716615555 3.8057835332 0.7483802000
