29
0 1
N -2.0605021354 0.1392520712 -0.0099777330
H -2.4146628209 1.0739473205 0.1135304585
C -0.7084046809 -0.1414990785 0.4533564896
H -0.7744472375 -0.7869173378 1.3297664326
C 0.1326956814 -0.8730698349 -0.6136497052
C -0.0461224009 1.1306460308 0.9674818298
H -0.1340336324 -0.5062474184 -1.6033377734
H -0.1555068219 -1.9235721444 -0.5815220628
C 1.6025025690 -0.6973361522 -0.4405270416
O 0.3943128651 1.1686849356 2.1126824711
N 2.2561745756 -0.7468496683 0.7676693014
C 2.6112328975 -0.5116636955 -1.3671023222
H 1.8150012148 -0.7297227710 1.6748334639
C 3.5852602119 -0.5702689892 0.5293482092
N 3.8390536105 -0.4358283767 -0.7616094596
H 2.5041349401 -0.4499727188 -2.4374987337
H 4.3120164468 -0.5415381855 1.3225924205
C -2.9693139633 -0.8832428140 -0.0866827091
C -4.3940270202 -0.4627155515 -0.3513227558
O -2.6365013149 -2.0521705274 0.0425206075
H -4.9817837837 -0.6468759130 0.5458840153
H -4.7966088142 -1.0856100065 -1.1450242869
H -4.4851595643 0.5843032499 -0.6296508769
N -0.0020371203 2.2151303229 0.1455757224
C -0.0872767950 2.2081554039 -1.3065719107
H 0.5202422279 2.9731316625 0.5618024580
H -0.9179249223 1.5900506010 -1.6309466702
H -0.2714799501 3.2247189218 -1.6436877498
H 0.8314757379 1.8417506636 -1.7657390889
