29
0 1
N -0.9475368075 -1.0245921406 -0.1121633137
H -0.3301267312 -0.9508659980 -0.9114591968
C -0.7843203979 0.0142573865 0.8940695046
H -1.5665230108 -0.1156602906 1.6363265591
C 0.5661936833 -0.1400479085 1.6151527564
C -1.0693294399 1.3861397670 0.2765672510
H 0.7203734441 0.7210953045 2.2661154278
H 0.4855627909 -1.0182832780 2.2589434368
C 1.7566962407 -0.2848732855 0.7330135658
O -2.1913462051 1.8754523426 0.3652002704
N 2.0104375214 -1.4117837084 -0.0131155639
C 2.8223006687 0.5529444924 0.4513558817
H 1.4277711483 -2.2338105485 -0.0392708529
C 3.1741762458 -1.2138224145 -0.6938579839
N 3.6932585801 -0.0260188444 -0.4355027530
H 3.0034617174 1.5316397121 0.8649943268
H 3.5887674706 -1.9543953816 -1.3556752579
C -2.1655887818 -1.5706790144 -0.4912331296
C -3.3025812052 -1.4466490884 0.4880386903
O -2.2661649275 -2.1498992730 -1.5602327297
H -3.6021022668 -0.4030932517 0.5773686904
H -3.0174706113 -1.8042097726 1.4763071241
H -4.1304265883 -2.0371943142 0.1124924494
N -0.0455177839 1.9497006716 -0.4058971873
C -0.1954762230 3.1994032176 -1.1240088875
H 0.8515404682 1.4868255840 -0.4000235737
H 0.0343164791 3.0665194215 -2.1791186216
H -1.2285591208 3.5140350872 -1.0177266164
H 0.4569486426 3.9666125259 -0.7115352666
