29
0 1
N 0.5878746961 0.8263207653 -0.4049526666
H 0.5926127105 0.7135340152 -1.4099784982
C 0.3696909859 -0.3807951856 0.3763475757
H -0.0023381142 -0.1018224056 1.3612642848
C -0.7008834427 -1.2440908959 -0.2978117255
C 1.6180236282 -1.2139178954 0.6780729066
H -0.4152786658 -1.4165992746 -1.3410600086
H -0.7150773646 -2.2174039067 0.1921517490
C -2.0670014135 -0.6588747386 -0.2025479515
O 1.7033979098 -1.7727919573 1.7659076482
N -2.3534584500 0.6654152658 -0.4344098507
C -3.2889762206 -1.2293060966 0.0929336628
H -1.6629979519 1.3765235055 -0.6174681645
C -3.6942423008 0.8360435662 -0.2644283644
N -4.2947193170 -0.2985121367 0.0515629663
H -3.4824679182 -2.2612148020 0.3327468036
H -4.1723749005 1.7937081455 -0.3771307359
C 1.4485915353 1.8365076881 -0.0092902220
C 1.6847319039 1.9563069945 1.4725183736
O 1.9399664472 2.5896347258 -0.8356989304
H 2.1872031126 1.0723924915 1.8643488129
H 0.7391525270 2.0566822704 2.0040553634
H 2.2998820503 2.8313449649 1.6487626807
N 2.6011466502 -1.3188904497 -0.2555950636
C 2.6327428188 -0.8738121012 -1.6382269268
H 3.3644892322 -1.8941614178 0.0651798678
H 3.4375933410 -1.4060094114 -2.1374279289
H 1.7127735747 -1.1260621714 -2.1626022700
H 2.8224399357 0.1943844478 -1.7303283879
