29
0 1
N -1.5777575450 -0.9419394004 -0.5255101463
H -1.7172862314 -0.9462961905 -1.5248660963
C -0.3715630875 -0.3426767808 -0.0036646613
H -0.0174126694 -0.9216200381 0.8492617738
C 0.7209397627 -0.3621861881 -1.0863535904
C -0.5510386836 1.0798386844 0.5359432552
H 0.6077699612 -1.2889222069 -1.6509161993
H 0.5473459429 0.4620184208 -1.7853616390
C 2.1147290276 -0.3323997803 -0.5553579904
O 0.1094063929 1.4516216863 1.5109844308
N 2.5173133742 0.3914794565 0.5384368089
C 3.2640993350 -0.9472714106 -1.0138071577
H 1.8860698030 0.9102398478 1.1431444509
C 3.8515028778 0.1820660557 0.6975798065
N 4.3415354072 -0.6224660461 -0.2329286946
H 3.3578324562 -1.6036343783 -1.8628374653
H 4.4109878511 0.6281292587 1.5014811604
C -2.7335795740 -1.1456762101 0.1881919646
C -2.5993322446 -1.0969924812 1.6886611192
O -3.7908824607 -1.3700320140 -0.3838689200
H -2.3168948806 -0.1011875506 2.0289819296
H -1.8341975209 -1.7912998338 2.0328660280
H -3.5568362019 -1.3647454295 2.1207566443
N -1.4237432386 1.9187360474 -0.0648539604
C -2.1947927019 1.7636568642 -1.2897831518
H -1.4383575843 2.8242228824 0.3796694527
H -2.5192414767 2.7544071282 -1.5951745374
H -1.5857708922 1.3595310201 -2.0947253906
H -3.0728931984 1.1370155867 -1.1530222243
