35
0 1
N -1.8754911053 -1.3179993253 -0.6474088071
H -1.3666279051 -1.8072455427 -1.3697749461
C -1.1191769763 -0.7300434143 0.4404011646
H -1.4201231133 -1.1520589248 1.4009952254
C 0.3670154648 -1.0214621230 0.2107202498
C -1.3161114575 0.7819187414 0.5618666869
H 0.4662678015 -2.0854019749 -0.0206390917
H 0.7044140632 -0.4644031433 -0.6661242360
C 1.2580277418 -0.6894731146 1.4003332654
O -1.1090037341 1.3622562385 1.6226820061
H 1.0519627388 -1.3854010255 2.2152340893
H 1.0212866339 0.3057009181 1.7793265309
C 2.7315996877 -0.7723370249 1.0370869351
H 2.9665286262 -1.7151306122 0.5465824702
H 3.3539065240 -0.7221534519 1.9345376489
N 3.0635981115 0.2941256134 0.1038296161
H 2.8124781312 1.2137307440 0.4396770457
C 4.3135808824 0.2679388634 -0.4917365759
N 5.0728960409 -0.7584179137 -0.3799202905
N 4.5955176715 1.4665319200 -1.1575295409
H 5.9007280998 -0.6396121524 -0.9573960403
H 5.3867667729 1.3945454535 -1.7770997108
H 3.7939844380 1.8506692740 -1.6352123264
N -1.6658570197 1.4012947652 -0.5897262792
C -1.8726555371 2.8305826536 -0.6642019561
H -1.8909695111 0.8089577667 -1.3716743497
H -1.2684734322 3.2675710292 -1.4565692876
H -1.5726581800 3.2510839102 0.2907335501
H -2.9195356671 3.0705192616 -0.8439776304
C -3.2251164328 -1.5880775792 -0.6423481012
C -3.9964706800 -1.0576608200 0.5399995618
O -3.7456178012 -2.2155119810 -1.5517671366
H -5.0525401128 -1.2146749042 0.3516149733
H -3.7121084835 -1.5932187572 1.4455447002
H -3.8026102812 -0.0001313675 0.7096595864
