29
0 1
N -0.5848575003 0.8038517887 0.1752638199
H 0.2435003026 1.1594199484 0.6281914495
C -0.4347341599 -0.4321568953 -0.5635094273
H -0.2178393170 -0.2252938541 -1.6137529954
C 0.7070357048 -1.2557487254 0.0337307383
C -1.6671504056 -1.3330793691 -0.6293236172
H 0.4416468587 -1.5488025951 1.0536911081
H 0.7856647049 -2.1710674878 -0.5562973587
C 1.9981048674 -0.5094774841 0.0354900680
O -1.8419309628 -1.9962459989 -1.6424790359
N 3.0724446601 -0.8807810620 0.8069034073
C 2.4464843752 0.5998281496 -0.6579662186
H 3.1017579132 -1.6675878869 1.4338069424
C 4.0947970815 -0.0158691767 0.5529634877
N 3.7452531225 0.9002132936 -0.3316182502
H 1.8990725520 1.1857801241 -1.3768708311
H 5.0530161537 -0.0958423025 1.0364907098
C -1.5566584108 1.6965052621 -0.1807679881
C -1.4477447509 3.0590360996 0.4584379400
O -2.4559381839 1.3931789762 -0.9526324570
H -0.7653496559 3.0769632642 1.3048162677
H -2.4365986552 3.3772046841 0.7760537714
H -1.0973326386 3.7656730697 -0.2921889820
N -2.4510716127 -1.5024853223 0.4710618141
C -2.5112018991 -0.7421650578 1.7027122098
H -3.2352090473 -2.1027045385 0.2671055365
H -2.9651080425 0.2393560827 1.5664452165
H -3.1149172717 -1.3068244303 2.4092141098
H -1.5242677822 -0.6129685561 2.1351305647
