29
0 1
N 1.0917694457 -0.7814055749 -0.3326681244
H 0.3960898647 -1.2861760725 0.1888713268
C 0.6837716460 0.3804392856 -1.0832726336
H 1.4133138836 0.5245572321 -1.8788420146
C -0.7022906974 0.1523309081 -1.7047989509
C 0.6736085575 1.7297542148 -0.3576700877
H -0.9703883973 1.0579544430 -2.2457212784
H -0.6363280271 -0.6640805856 -2.4260442396
C -1.7285992889 -0.1447158870 -0.6697139229
O 0.6465626182 2.7404966432 -1.0515269122
N -2.0252266299 -1.4241129819 -0.2508820870
C -2.4653765871 0.6657227255 0.1720292588
H -1.7328544086 -2.2712030430 -0.7112772891
C -2.9160280775 -1.3346426210 0.7805200910
N -3.1952586951 -0.0750739581 1.0672901353
H -2.4940828473 1.7423195027 0.1681626366
H -3.3274621068 -2.2021923890 1.2670858642
C 2.4105670898 -1.0061965512 -0.0491633424
C 2.6840807417 -2.2143286793 0.8153096622
O 3.3021768644 -0.2946935175 -0.4864785707
H 3.3587939432 -1.9221955075 1.6158330936
H 3.1930918252 -2.9644252666 0.2134336991
H 1.7834385906 -2.6524814822 1.2402802541
N 0.6849414412 1.8073300783 0.9984453703
C 0.4906882120 0.7936399830 2.0182532708
H 0.6860623201 2.7682847339 1.3038941861
H 1.3849170791 0.1955734802 2.1845259490
H 0.2519143959 1.3074692019 2.9459666745
H -0.3535857557 0.1464706850 1.7883379813
