31
0 1
N -0.1088388044 0.9987550486 -0.5912373852
C -0.2565157614 -0.3178706804 0.0122105314
C 1.0317443731 -1.1076627070 -0.2474965490
O 1.1485063969 -1.9022901491 -1.1748883220
C -1.4887604060 -1.0388022452 -0.5164873451
C -2.7431271008 -0.1616804550 -0.4352430972
C -1.6664454021 -2.3544300176 0.2365204471
C -3.0491814559 0.3825771157 0.9563633980
H -0.3378865411 1.1085107592 -1.5650443667
H -0.3524475093 -0.1470825984 1.0849938699
H -1.2971277631 -1.2802903060 -1.5654151119
H -2.6526924138 0.6761437754 -1.1286593042
H -3.5874474821 -0.7575506167 -0.7881037330
H -0.8164249990 -3.0116110188 0.0681662713
H -1.7636032888 -2.1851987485 1.3091618417
H -2.5645374313 -2.8685286676 -0.1046388880
H -3.1631257253 -0.4185118330 1.6849181835
H -3.9775948666 0.9515118109 0.9479684347
H -2.2604583599 1.0475391507 1.3071617699
N 2.0220914514 -0.8058960603 0.6244892454
H 1.8738506889 0.0085291967 1.2068973367
C 3.3613256108 -1.3186708673 0.4270920852
H 3.9233072154 -0.7278046675 -0.2971709177
H 3.8905986603 -1.3175309261 1.3755272041
H 3.2898108682 -2.3351647612 0.0526063285
C 0.5122452730 2.0142515594 0.0596363105
O 0.9573426405 1.8891168327 1.2006826568
C 0.6031163073 3.3178595401 -0.6915496089
H 1.6486158521 3.6092969276 -0.7561720305
H 0.0821142799 4.0813218257 -0.1184999269
H 0.1782696929 3.2679617831 -1.6909633284
