31
0 1
N -0.3697255169 1.0190239610 0.8140320344
C -0.1724530298 -0.4125295837 0.5857532666
C 1.3055973533 -0.8141323420 0.5980413010
O 1.7385434536 -1.6186085497 1.4191349725
C -0.8995808092 -0.9376298833 -0.6604436334
C -2.3624453950 -0.4873751440 -0.6984892142
C -0.7624942645 -2.4571936278 -0.7089058581
C -3.1844400385 -0.8606029525 0.5305130662
H -0.6806667913 1.2949889677 1.7290655231
H -0.5892645610 -0.9095071709 1.4605259467
H -0.4100186668 -0.5202842871 -1.5397881751
H -2.3987469485 0.5931902410 -0.8446225642
H -2.8195219887 -0.9296785473 -1.5862032950
H 0.2812614984 -2.7585095540 -0.7828573281
H -1.1729313169 -2.9255049142 0.1856238636
H -1.2909595290 -2.8541408196 -1.5751133748
H -3.1613426643 -1.9321953302 0.7223909481
H -4.2261696042 -0.5738572789 0.3955566863
H -2.8229871140 -0.3529785086 1.4244267114
N 2.0598619985 -0.2551487051 -0.3704113939
H 1.6364073993 0.4662124441 -0.9430531014
C 3.4775391569 -0.5361811546 -0.4418599277
H 3.6425647745 -1.6106515138 -0.4227728944
H 3.8687354777 -0.1267248627 -1.3682036637
H 4.0163559256 -0.1008704188 0.3995934625
C -0.1422624919 2.0083303529 -0.0813035122
O 0.3197137367 1.8109831792 -1.2065268884
C -0.5131230856 3.3972742826 0.3774546228
H 0.3410136645 4.0514941666 0.2235870532
H -0.8243577142 3.4436023017 1.4179271449
H -1.3232739088 3.7586772519 -0.2526117788
