31
0 1
N 1.0820314074 0.0041632939 -0.6824925471
C -0.2788156746 0.0248873913 -0.1833874993
C -0.9579853318 -1.2571708568 -0.6513972949
O -1.1216705731 -1.4608733431 -1.8515164892
C -1.0548111092 1.2400229523 -0.6923540029
C -0.3172404951 2.5458716900 -0.3846624744
C -2.4661532655 1.2212170483 -0.1118010761
C 0.0051735349 2.7645133256 1.0905795152
H 1.1988702601 -0.0732928339 -1.6805551671
H -0.1960608742 0.0671166072 0.8983382344
H -1.1337483978 1.1350771881 -1.7777760524
H 0.6105905564 2.5714865653 -0.9571866297
H -0.9321299295 3.3704517757 -0.7522962700
H -3.0125457784 0.3349516406 -0.4329350205
H -2.4462721489 1.2291959006 0.9785587228
H -3.0265535731 2.0953780922 -0.4417273512
H -0.8932106655 2.7466192699 1.7065208453
H 0.4787158862 3.7344042673 1.2353148807
H 0.6902459856 2.0059061086 1.4680566053
N -1.3385809838 -2.1438690198 0.2981218511
H -1.7828921594 -2.9703965952 -0.0698766618
C -1.1379163509 -2.0356976293 1.7336189490
H -1.8225816346 -1.3206809578 2.1896900258
H -1.3274469478 -3.0107324104 2.1732197751
H -0.1139515615 -1.7512536474 1.9653814667
C 2.1282755012 -0.3172074754 0.1287576007
O 2.0078384498 -0.4643830792 1.3414346642
C 3.4605667083 -0.4587291308 -0.5654022918
H 4.1867072007 0.1625423449 -0.0478014159
H 3.4275475399 -0.1805290925 -1.6157381981
H 3.7875594240 -1.4927533899 -0.4776556941
