31
0 1
N -0.4093519096 -1.0350766487 -0.3189392228
C 0.1348739618 -0.0131417903 0.5642634230
C -0.3218204643 1.3957048486 0.1453884672
O 0.4649049418 2.2671252320 -0.2139464901
C 1.6554454399 -0.1226536683 0.6333645043
C 2.3060469617 -0.1326142081 -0.7552563454
C 2.0596771194 -1.3473882643 1.4468974596
C 3.7556443769 0.3347948326 -0.7123724107
H 0.1508710229 -1.3314396162 -1.0996287999
H -0.2941081513 -0.2098684121 1.5500749764
H 1.9934689502 0.7810168102 1.1431980833
H 1.7485053727 0.5241636458 -1.4226549465
H 2.2696820106 -1.1467310318 -1.1679657047
H 1.6969346153 -1.2783746600 2.4721912440
H 1.6451476158 -2.2544168491 1.0045371250
H 3.1423254789 -1.4578894768 1.4820115782
H 3.7993781352 1.3698632728 -0.3765027785
H 4.2189772780 0.2792191119 -1.6960609693
H 4.3524685570 -0.2692424964 -0.0300805283
N -1.6601448951 1.5606108398 0.2352718300
H -2.2035991093 0.7635704148 0.5466663657
C -2.3097610792 2.7956173311 -0.1432589863
H -2.9619495916 2.6509624228 -1.0034827161
H -2.8991389568 3.1900294824 0.6822309207
H -1.5343869435 3.5101356096 -0.4014174266
C -1.6455994246 -1.5639486574 -0.1648417720
O -2.4257979071 -1.1786571508 0.7076095238
C -2.0166976701 -2.6588113428 -1.1323674695
H -2.3243181363 -3.5308270978 -0.5606854134
H -1.2060873058 -2.9343243478 -1.8022781109
H -2.8723552934 -2.3299091358 -1.7178184102
