31
0 1
N 0.7631681658 -0.6623983335 -0.9931352585
C -0.3648626522 0.1793229845 -0.5994744977
C -0.0071104904 1.6607965565 -0.8036367632
O -0.2894099913 2.1743136472 -1.8850757352
C -1.0588397860 -0.2176325203 0.7033733360
C -1.4397234101 -1.7030424680 0.6952748677
C -2.2789499116 0.6827593796 0.8856904510
C -2.2566779256 -2.1633350670 -0.5073882647
H 0.9077911552 -0.7376699700 -1.9863158885
H -1.1012763590 0.0370587954 -1.3908570108
H -0.3899786072 -0.0773742321 1.5456538114
H -0.5287530676 -2.2971977758 0.7677811834
H -2.0045582481 -1.8970699471 1.6098928968
H -1.9916434190 1.7303359821 0.9777215549
H -2.9630972730 0.6059170013 0.0402383780
H -2.8229036049 0.4035704994 1.7875121707
H -3.1609282379 -1.5701381051 -0.6383725645
H -2.5626248843 -3.2008164481 -0.3817997555
H -1.6786175011 -2.1068516953 -1.4288757477
N 0.6385396956 2.3711968749 0.1541353124
H 0.7869677038 3.3264487596 -0.1332826580
C 1.0354206322 2.0059250850 1.5016213955
H 0.2234008427 2.1378697681 2.2185026639
H 1.3882386089 0.9805885123 1.5370292444
H 1.8563292615 2.6553400761 1.7952417788
C 1.7508983756 -1.1593400020 -0.2017072678
O 1.7830079487 -1.0365751461 1.0186697240
C 2.8262832612 -1.9236568090 -0.9405411341
H 2.8914299448 -2.9208282436 -0.5122036823
H 3.7788623005 -1.4282155082 -0.7667076288
H 2.6521584726 -2.0024356510 -2.0105959115
