31
0 1
N -0.2830057170 1.0759229626 -0.9672908536
C -0.3415675324 -0.3730360848 -0.7733612611
C -1.7654276901 -0.8327609336 -0.4341076739
O -2.3863356178 -1.4994667867 -1.2583600106
C 0.7536790012 -0.9738904081 0.1136756013
C 2.1277642846 -0.7069492592 -0.5043544785
C 0.4959720028 -2.4728560495 0.2509311196
C 3.2615249482 -0.8843806365 0.4967038881
H -0.7221236134 1.3993944125 -1.8129115946
H -0.1986881373 -0.8070960828 -1.7658477042
H 0.7342197464 -0.5127260788 1.0971086307
H 2.1621273350 0.3104830517 -0.8933414988
H 2.2614724153 -1.3784309685 -1.3578921856
H -0.4248325861 -2.6786724754 0.7958222600
H 0.4128681931 -2.9411902291 -0.7311619176
H 1.3129116959 -2.9516288831 0.7876802764
H 3.1495329279 -0.1707015673 1.3121360944
H 4.2301355551 -0.7137855979 0.0292284517
H 3.2731207765 -1.8875841697 0.9207142056
N -2.3217926050 -0.4852325521 0.7530572338
H -3.2473262815 -0.8708802437 0.8638182783
C -1.7283106632 0.1827983881 1.8930168040
H -1.4241510586 -0.5281376457 2.6630146275
H -0.8595689098 0.7594491465 1.5974067727
H -2.4552018463 0.8678881988 2.3248955786
C 0.2991632354 2.0390349609 -0.2022152178
O 0.8525771159 1.8342038401 0.8735460408
C 0.2380540330 3.4281840455 -0.7985971875
H -0.0569490609 4.1233994774 -0.0177005010
H -0.4455340029 3.5141674151 -1.6397551919
H 1.2387020557 3.7039807532 -1.1265735873
