31
0 1
N -0.9525689205 -0.6950658227 -0.7967085679
C 0.1154614654 0.2326781789 -0.4621147678
C 1.3783713231 -0.5626124813 -0.1096460176
O 1.3308933984 -1.6408520810 0.4656334280
C -0.2630244885 1.2357624189 0.6417548041
C -1.6206365377 1.8851931733 0.3530789868
C 0.8271141016 2.2921703813 0.8125664762
C -1.7259901754 2.5821699472 -0.9988998585
H -0.8095978133 -1.1716691128 -1.6734420499
H 0.3168032498 0.8083374127 -1.3706180932
H -0.3598206165 0.6774521349 1.5708028466
H -2.3947747841 1.1247533305 0.4359505288
H -1.8098549909 2.6086843000 1.1493714954
H 1.7528250994 1.8651513584 1.1937313690
H 1.0487812760 2.8048142770 -0.1262927838
H 0.4963896507 3.0468327698 1.5254402584
H -0.9555339317 3.3417473740 -1.1307189607
H -2.6903452627 3.0786819333 -1.0960145735
H -1.6470888884 1.8682415829 -1.8179430587
N 2.5460906267 0.0029256230 -0.5197914386
H 2.5185673196 0.9377752358 -0.8862060228
C 3.8221308820 -0.5611929346 -0.1304215886
H 4.5829830223 -0.2656221698 -0.8471661770
H 4.1238110425 -0.2412883368 0.8674166554
H 3.7281305880 -1.6425200720 -0.1262654164
C -1.6391987572 -1.4526118970 0.1295858254
O -1.7700004545 -1.1495924311 1.3029716318
C -2.2619647170 -2.6989019430 -0.4567737230
H -1.5243443725 -3.4998409983 -0.4122801675
H -2.5662408349 -2.5630913354 -1.4928292938
H -3.1188234996 -2.9811908159 0.1455022535
