31
0 1
N 1.3640011531 -0.0670742081 0.3982073737
C 0.0732850772 -0.4040666030 -0.1809363509
C -0.7836256953 0.8188218915 -0.4961400475
O -1.7618931684 0.7163084522 -1.2290198056
C -0.6648388041 -1.3734757950 0.7575466350
C -1.9082314683 -1.9973710687 0.1227988471
C -1.0339045848 -0.7104132172 2.0824265512
C -1.6517464954 -2.7073264061 -1.1996907271
H 1.6040762782 -0.4793876253 1.2847647041
H 0.2479965094 -0.8825189855 -1.1443469188
H 0.0458284471 -2.1858630337 0.9519689430
H -2.6609151673 -1.2225492759 -0.0208772710
H -2.3110306869 -2.7080633696 0.8482440015
H -0.1779928301 -0.2595470695 2.5858860534
H -1.7711925828 0.0754566274 1.9191445170
H -1.4683842408 -1.4441605408 2.7603541703
H -1.4339235977 -1.9931300797 -1.9904650106
H -2.5287080799 -3.2759084563 -1.5049417907
H -0.8160957518 -3.4045341235 -1.1197204202
N -0.4256204877 1.9673342326 0.1223213840
H 0.4685465502 1.9714372128 0.5816644490
C -1.0916440145 3.2154402503 -0.1798264485
H -2.1227661564 2.9929152986 -0.4357330974
H -1.0652295621 3.8661661726 0.6900958304
H -0.6294513037 3.7252079762 -1.0252792052
C 2.3906220201 0.3515318104 -0.4093650544
O 2.2047896435 0.6686919313 -1.5741254063
C 3.7499965963 0.4030992422 0.2463320065
H 3.7032857057 0.3365882523 1.3308659754
H 4.2411615402 1.3280218349 -0.0417389647
H 4.3489851569 -0.4228183276 -0.1332579226
