31
0 1
N -0.0835816657 0.8671928690 -0.5226001201
C -0.0114643026 -0.3985011070 0.1768364717
C 1.3975042195 -0.9990430084 0.2398756609
O 1.6152361677 -1.9819699987 0.9390533218
C -0.9440491410 -1.4303307348 -0.4571720182
C -2.4498103109 -1.1969976135 -0.2753354371
C -2.8201424340 -1.0171998191 1.1929565961
C -3.0177246015 -0.0528087533 -1.1125941404
H -0.5024911481 0.8811327318 -1.4408807586
H -0.3031623744 -0.2632119362 1.2177149604
H -0.6813940898 -2.3880150274 -0.0072221774
H -0.7061643544 -1.5044651353 -1.5238547892
H -2.9240098016 -2.1177601335 -0.6260830924
H -2.4662731190 -0.0565766524 1.5702084495
H -3.9021385333 -1.0332761226 1.3196220958
H -2.3929711796 -1.8050929099 1.8137224211
H -2.6907955660 0.9184459308 -0.7438190206
H -4.1068982642 -0.0652875467 -1.0756942688
H -2.7240445032 -0.1397621236 -2.1599621874
N 2.3273386711 -0.3775326246 -0.5193834806
H 2.0229781788 0.4228512294 -1.0475535138
C 3.6975635509 -0.8349122229 -0.5862120694
H 3.9313206980 -1.2434638839 -1.5680665905
H 4.3855402595 -0.0212550815 -0.3672498806
H 3.8144747677 -1.6168590119 0.1579111782
C 0.0835221758 2.1159627335 0.0242272234
O -0.1409707434 3.1253400372 -0.6279746673
C 0.5634542088 2.1508046567 1.4539321526
H 1.4197413990 1.4962492723 1.6074156099
H -0.2303995236 1.8251228004 2.1263327910
H 0.8297663595 3.1738751862 1.6948072798
