31
0 1
N -1.4344420223 -0.0400348090 -0.4270274237
C -0.0212170831 -0.3067267992 -0.1874624910
C 0.7457602574 1.0074994555 -0.3861454978
O 1.2861660039 1.3059221026 -1.4460898118
C 0.4769920709 -1.4039975238 -1.1147107185
C 1.7040641532 -2.1594561063 -0.5904367715
C 2.8691539431 -1.2345356104 -0.2513660264
C 1.3501929998 -3.0363145010 0.6073184153
H -1.7879662302 -0.1367711694 -1.3641869209
H 0.0497597873 -0.6068849120 0.8576964319
H 0.7049019075 -0.9470549331 -2.0793430852
H -0.3338155424 -2.1222154956 -1.2581776620
H 2.0249188150 -2.8191778242 -1.4007584126
H 2.6248016295 -0.5934137308 0.5977370575
H 3.7454128459 -1.8204618504 0.0258218176
H 3.1278400127 -0.5909855020 -1.0898342648
H 1.0444081690 -2.4342408177 1.4637844896
H 2.2118659616 -3.6265527098 0.9182759839
H 0.5370571410 -3.7231294553 0.3714758924
N 0.7329689500 1.8046778827 0.7070938182
H 0.0576967824 1.5663401166 1.4231023005
C 1.2586746753 3.1519371485 0.6309950951
H 0.5916161271 3.8207910800 0.0859463804
H 1.4049388724 3.5331848617 1.6371524267
H 2.2114705790 3.1292463262 0.1104696397
C -2.2334350627 0.4847762772 0.5343835703
O -1.8190149570 0.7466416935 1.6640517985
C -3.6709569088 0.7136933367 0.1427911342
H -3.8958637380 1.7717916684 0.2545465489
H -4.3065999096 0.1660698991 0.8342178836
H -3.8941672299 0.4030249011 -0.8746915980
