31
0 1
N 1.0087819749 -0.6197953108 0.2632991155
C 0.1274466128 -0.0517314798 -0.7377407757
C -0.1778987692 1.4319408079 -0.5143739452
O -1.0783613584 1.9894882778 -1.1305527469
C -1.1494556607 -0.8705459476 -0.9294323282
C -1.8998858935 -1.2481843962 0.3481840182
C -2.2583521719 -0.0385016788 1.2065388631
C -3.1615769867 -2.0208399701 -0.0231468086
H 0.5999141806 -0.9347363975 1.1271568915
H 0.7010025994 -0.0790252080 -1.6667403044
H -0.8897439980 -1.7855569356 -1.4657191604
H -1.8072076563 -0.2846618459 -1.5732759153
H -1.2689024864 -1.9226457528 0.9379326727
H -2.8555231605 0.6692275598 0.6313282178
H -2.8358622675 -0.3492220352 2.0774421537
H -1.3790627705 0.4973163847 1.5654109102
H -3.8364623022 -1.3812816753 -0.5936826529
H -3.6913760083 -2.3600395692 0.8666243295
H -2.9278491861 -2.8927240966 -0.6338226503
N 0.6312556234 2.0650120142 0.3672421849
H 1.3985030160 1.5362304888 0.7441943237
C 0.5552638730 3.4956571123 0.5652187855
H -0.4602564002 3.8096244763 0.3444183437
H 0.7953202916 3.7393957696 1.5967732231
H 1.2334654487 4.0335796280 -0.0971521116
C 2.2494168343 -1.1091747414 -0.0623690341
O 2.7677132985 -0.9230263430 -1.1524426567
C 2.9333907853 -1.8884085392 1.0358003044
H 2.9421019317 -2.9404635866 0.7567824152
H 2.4477054203 -1.7830272995 2.0032523079
H 3.9654971859 -1.5573577106 1.1075430298
