31
0 1
N -1.2610529361 -0.6611791220 0.2642236340
C -0.0991587133 -0.5005465362 -0.5711509379
C 1.0781177193 -1.1123563192 0.1755679113
O 1.0202461102 -1.3756119539 1.3735801369
C 0.1862358469 0.9645177213 -0.9449173381
C 0.8131701760 1.8431401148 0.1366250342
C 1.0936392110 3.2220492287 -0.4536962917
C -0.0531400987 1.9771977614 1.3855859982
H -1.0882645533 -0.9789824962 1.2054239775
H -0.2718220912 -1.0481924152 -1.5013649716
H -0.7603686801 1.3947258340 -1.2788275230
H 0.8484586978 0.9666112616 -1.8159555559
H 1.7694537267 1.3990783515 0.4307021022
H 0.1592847656 3.7037198557 -0.7468916585
H 1.5878105109 3.8654097638 0.2737879847
H 1.7285929953 3.1576764428 -1.3375651391
H -1.0559527349 2.3159068708 1.1197968452
H 0.3817960910 2.7121154882 2.0637281786
H -0.1386323258 1.0367472760 1.9233053853
N 2.1870657153 -1.2916919121 -0.5786288021
H 2.1287722685 -1.0847613119 -1.5602239896
C 3.4257532548 -1.8024354064 -0.0302744228
H 4.2524943735 -1.1342031264 -0.2612121810
H 3.3016491996 -1.8621317430 1.0461210196
H 3.6502160159 -2.7956444049 -0.4153935956
C -2.5121629555 -0.5876133681 -0.2536420401
O -2.7177048526 -0.3193868766 -1.4336883020
C -3.6336394701 -0.8400228830 0.7247010814
H -4.2525000152 0.0528334966 0.7776731993
H -3.2828469472 -1.0925825061 1.7221652278
H -4.2527923045 -1.6476030862 0.3417400327
