31
0 1
N 0.9318495728 -0.8933279072 0.0888674445
C 0.0809413487 -0.1586516371 -0.8319676561
C -0.0590915926 1.3304233420 -0.5168947668
O -0.7382742901 2.0462267636 -1.2437743058
C -1.3091713199 -0.7875179178 -0.9622181996
C -2.3001138895 -0.5081984556 0.1690729292
C -3.6342315444 -1.1659671055 -0.1675676658
C -1.8191870781 -0.9783940087 1.5391804924
H 0.4990176187 -1.5353845581 0.7296320881
H 0.5779029985 -0.1903222024 -1.8029321307
H -1.1860979804 -1.8678583232 -1.0880380325
H -1.7418679319 -0.4034465928 -1.8854769764
H -2.4527569636 0.5726227717 0.2115351482
H -3.5236478598 -2.2512658501 -0.2118069481
H -4.3857764044 -0.9372120558 0.5874548275
H -4.0082845030 -0.8266407816 -1.1328479455
H -1.5821454931 -2.0462410452 1.5218806228
H -2.6009499919 -0.8356774037 2.2850773559
H -0.9444556668 -0.4245286374 1.8774600137
N 0.5752856482 1.7631697158 0.5967203367
H 1.2024755069 1.1138996307 1.0392421680
C 0.6228564376 3.1683076330 0.9374984189
H -0.2240232265 3.6509155694 0.4597652035
H 0.5537542740 3.2945966770 2.0149625870
H 1.5382515346 3.6382155607 0.5786867130
C 2.2720931310 -1.0356950525 -0.1578090015
O 2.8458532239 -0.3954889343 -1.0263736444
C 2.9859639754 -2.0300221491 0.7270406423
H 3.9157968843 -1.5866014200 1.0717539877
H 3.2376154274 -2.9045935057 0.1299173360
H 2.3923681539 -2.3445351203 1.5824319578
