31
0 1
N -1.6045337770 0.2607074328 -0.1292437322
C -0.2554413436 0.0030802028 0.3631434158
C 0.4931782573 1.3137431996 0.5318420628
O 1.1424474302 1.5800325259 1.5333767655
C 0.5065788129 -0.9214486825 -0.5929435192
C 1.9622713539 -1.1741153205 -0.2066300261
C 2.0811265732 -1.7709056672 1.1922568330
C 2.6014527354 -2.0970645505 -1.2381995980
H -1.9012219512 1.2201411336 -0.2008260211
H -0.3148232550 -0.4599666830 1.3466775322
H 0.4633521215 -0.4902935821 -1.5978197733
H -0.0335838606 -1.8690552766 -0.6264604217
H 2.4995695971 -0.2207376281 -0.2176521603
H 1.4675799528 -2.6702986649 1.2729283074
H 3.1143655508 -2.0484311437 1.4003743702
H 1.7669693746 -1.0657391133 1.9591516012
H 2.1023079642 -3.0674396677 -1.2361005420
H 3.6554299642 -2.2617870704 -1.0161689192
H 2.5269501312 -1.6839564732 -2.2445166908
N 0.3880931242 2.1685872103 -0.5281965493
H 0.0451009282 1.7901798160 -1.3955254102
C 1.1907184036 3.3760987296 -0.5672127179
H 0.7845861453 4.0518293734 -1.3140977247
H 1.1506188025 3.8492942364 0.4087164308
H 2.2350157323 3.1653703823 -0.7985409032
C -2.5759499016 -0.6943408769 -0.0000171678
O -2.3278151731 -1.8357475740 0.3613763289
C -3.9746014627 -0.2352961334 -0.3384768307
H -4.5466674713 -0.1543372132 0.5839930501
H -4.4472641276 -0.9930860318 -0.9566468525
H -3.9955216318 0.7210571105 -0.8554941379
