31
0 1
N 0.8994800236 -1.0045170694 0.0635964998
C 0.1190950303 -0.2302829295 -0.8706766779
C 0.1532915860 1.2927993968 -0.7063522083
O -0.1591142240 1.9813779391 -1.6713877382
C -1.3140972195 -0.7668433158 -0.9479202698
C -2.1669315000 -0.6920665968 0.3219259681
C -2.7027737813 0.7131420195 0.5833369361
C -3.3337825094 -1.6679011261 0.1951999195
H 0.4382438692 -1.4111979445 0.8629143505
H 0.5409788097 -0.3649203559 -1.8670560892
H -1.2318928736 -1.8106659349 -1.2595075876
H -1.8236296528 -0.2275019582 -1.7487092691
H -1.5702314754 -1.0069876324 1.1847436097
H -3.3297678872 1.0293404618 -0.2516321572
H -3.3136138414 0.7266637927 1.4860791254
H -1.9149462453 1.4532431760 0.6991113283
H -3.9397349125 -1.4145438281 -0.6763235559
H -3.9773769775 -1.6259842611 1.0733079837
H -2.9843694402 -2.6929100508 0.0755148023
N 0.5784885897 1.8613047848 0.4579889995
H 0.5502517895 2.8677733943 0.3947124704
C 0.7050054043 1.2934063013 1.7929311305
H 1.6250746932 0.7302431028 1.9258201524
H 0.7069548248 2.1212410073 2.4974916399
H -0.1411729194 0.6567981493 2.0432695091
C 2.2650881775 -1.0175432867 0.1544843349
O 2.8285175604 -1.5351553604 1.1106277950
C 3.0122066604 -0.3675034702 -0.9829590902
H 2.7557485178 -0.8308070566 -1.9346587071
H 4.0738941358 -0.4846409793 -0.7971658146
H 2.7702257872 0.6925476308 -1.0533373900
