35
0 1
N 2.6278178480 -0.3378910388 -0.6658942090
H 3.5073312340 0.0087172352 -1.0100570874
C 1.4906961657 0.5475482549 -0.9015775986
H 1.6441331613 0.9795595217 -1.8917275932
C 0.1179999634 -0.1247093784 -0.9113037188
C 1.5003806636 1.7821305583 0.0047406129
H 0.1688470227 -1.0202787709 -1.5312897395
H -0.1707606866 -0.4545164874 0.0814222912
C -0.9363796054 0.8274451594 -1.4670410766
O 1.4853796533 2.9010837809 -0.5017385935
H -0.7407279697 1.0262831833 -2.5222217980
H -0.8842325388 1.7957757006 -0.9628344095
C -2.3421501777 0.2664442758 -1.3213620006
H -2.3865269572 -0.7346112522 -1.7548487001
H -3.0535101477 0.8948458303 -1.8689810697
N -2.6878860225 0.1623591545 0.0832245833
H -2.4445450535 0.9790183070 0.6264723616
C -3.9169401837 -0.3727270868 0.4446464911
N -4.7825144772 -0.9442058511 -0.3072819895
N -4.1621733930 -0.2268896862 1.8111230641
H -4.5171687272 -0.8575854936 -1.2829226550
H -3.3662333590 -0.4766617384 2.3787005009
H -4.9810283527 -0.7559521425 2.0714033230
N 1.4629695921 1.6142426842 1.3520008073
C 1.6489748337 0.4029150307 2.1262908570
H 1.5144696062 2.4945373684 1.8423299654
H 1.1272400525 0.5149350216 3.0738891974
H 2.7024851285 0.2060476926 2.3316188008
H 1.2369737860 -0.4588555132 1.6129642040
C 2.6467302791 -1.6082803926 -0.1685722752
C 4.0016682158 -2.2792847325 -0.2290139507
O 1.6711320356 -2.1826329589 0.2971110995
H 3.9504958111 -3.0879171838 -0.9554716126
H 4.8128365960 -1.6089260916 -0.5027996942
H 4.2082310034 -2.7215829603 0.7417006122
