31
0 1
N 0.2199714768 0.9708381331 0.7123720342
C -0.0026141148 -0.4678155059 0.8496207323
C 1.2737289841 -1.3124382618 0.7767090505
O 1.5222224424 -2.1314942353 1.6566103263
C -1.0565932897 -1.0081706378 -0.1206023034
C -2.3725878276 -0.2352536485 -0.1230136678
C -3.3355851813 -0.8825130656 -1.1118694842
C -3.0005270093 -0.1640437105 1.2640010473
H 0.1498370573 1.5218232688 1.5498260015
H -0.3548651420 -0.6132775717 1.8680136895
H -1.2466876657 -2.0446515756 0.1738088026
H -0.6487710088 -1.0245440253 -1.1299843126
H -2.1679138292 0.7824030783 -0.4659928179
H -3.5749706918 -1.9000864642 -0.7983888123
H -4.2689442201 -0.3236130568 -1.1754094162
H -2.8996189685 -0.9312826626 -2.1093134253
H -3.1524857912 -1.1679669115 1.6653448872
H -3.9712246181 0.3297141245 1.2238072589
H -2.3806636725 0.3888383595 1.9692943589
N 2.0314210898 -1.1065417561 -0.3220577603
H 1.7011824626 -0.4235318706 -0.9947081170
C 3.2455096793 -1.8547548719 -0.5607028465
H 3.2217518557 -2.3170301041 -1.5455169669
H 4.1257272721 -1.2165493894 -0.4931625497
H 3.3118489143 -2.6284777816 0.1979158209
C 0.4746222709 1.6342576586 -0.4397290992
O 0.6546968420 1.0674413282 -1.5187520297
C 0.4994391648 3.1388164264 -0.3281159628
H 1.3347905378 3.5164168849 -0.9103662542
H 0.5776335750 3.4928525317 0.6968700386
H -0.4168755943 3.5307923129 -0.7665092228
