33
0 1
N -1.6847277874 -0.9993934098 -0.7042510444
C -0.4429692559 -0.3862480680 -0.2753879613
C -0.6244419919 1.0211632305 0.2916638397
O 0.1920977304 1.4904353132 1.0774410100
C 0.5014147846 -0.3337848924 -1.4819610984
C 1.8752660141 0.2656288163 -1.2020498136
H -1.7708627304 -1.2765264441 -1.6716593103
H 0.0223403437 -0.9702526818 0.5183032626
H 0.6205847095 -1.3587145801 -1.8442024273
H 1.7695656885 1.3026021608 -0.8814760048
H 2.4305440311 0.2778369988 -2.1430151028
N -1.6968239403 1.6929867327 -0.1891746998
H -2.3460591211 1.1659937854 -0.7493244732
C -2.0106739635 3.0422812994 0.2269209297
H -2.9191862291 3.0710432623 0.8267441757
H -2.1344978045 3.6927271356 -0.6362511854
H -1.1788747208 3.3965319582 0.8280597902
C -2.6353923937 -1.5606337380 0.1174663324
O -3.5789427844 -2.1838590146 -0.3443902261
C -2.4339758119 -1.3435588903 1.5961519158
H -1.5546152222 -1.8865160704 1.9420114015
H -3.3097106572 -1.7173366268 2.1146344273
H -2.2830347075 -0.2917769871 1.8330218673
H 0.0034110492 0.2343097960 -2.2727314934
C 2.6735323684 -0.5016098454 -0.1566548868
H 2.7296945005 -1.5577628372 -0.4422000296
H 2.1808846419 -0.4491468640 0.8132194508
C 4.0810937313 0.0466888074 0.0017030196
H 4.5774951846 0.0514516713 -0.9772652389
H 4.0176488525 1.0840414231 0.3333598134
N 4.8022704010 -0.7088752987 1.0263890322
H 4.9534578586 -1.6556619401 0.6994062747
H 5.7237802317 -0.3130092019 1.1637454533
