33
0 1
N 1.1066841644 1.1083476523 -0.7778382479
C 0.1832266684 0.1166855870 -0.2629163947
C 0.8760348138 -1.1065708759 0.3377360336
O 0.3025666787 -1.8109315819 1.1619103678
C -0.7309859883 -0.3267384474 -1.4098806602
C -1.8386230958 -1.2991170137 -1.0098759664
H 1.0676007126 1.3331787652 -1.7617297136
H -0.4257164336 0.5386836156 0.5369267653
H -1.1682298263 0.5763087137 -1.8421168738
H -1.4000715265 -2.2496610494 -0.7086210617
H -2.4425875751 -1.4938430846 -1.8993083589
N 2.1113660218 -1.3584936621 -0.1552376009
H 2.5108551147 -0.6562658306 -0.7553382745
C 2.9023517002 -2.4857477740 0.2871699787
H 2.2714808650 -3.0894848393 0.9323655673
H 3.7762410856 -2.1598875932 0.8493087504
H 3.2285640308 -3.0845887297 -0.5605324347
C 1.8120750462 2.0218859008 -0.0284591730
O 2.4593960234 2.9096049922 -0.5623705710
C 1.7340937266 1.8413881971 1.4667541614
H 0.7295511105 2.0696166645 1.8228792488
H 2.4381225575 2.5257194233 1.9266991360
H 1.9623036473 0.8189446334 1.7630434500
H -0.1080185168 -0.7806720257 -2.1855364201
C -2.7368289428 -0.7933524685 0.1158224427
H -2.1773946990 -0.7411043759 1.0491853073
H -3.5327308078 -1.5253281602 0.2769049771
C -3.3732582424 0.5564406714 -0.1694284915
H -3.8969808089 0.5089424270 -1.1340285170
H -2.6004441374 1.3209567711 -0.2686868060
N -4.2265299477 0.9465751628 0.9527800499
H -4.6760654801 1.8323247891 0.7571650519
H -4.9740349389 0.2705115453 1.0547722780
