33
0 1
N -0.9754666759 -1.1723169144 -0.2502097517
C -0.6005968113 -0.2006810273 0.7559020593
C -1.1898295471 1.1967484338 0.5416703857
O -1.0493136245 2.0572213108 1.4032756865
C 0.9224618184 -0.0799203328 0.8413619010
C 1.5692170563 0.4649127818 -0.4286884150
H -0.2795848253 -1.4666730020 -0.9193493255
H -0.9661149795 -0.5229021661 1.7310121404
H 1.1451905206 0.5931781826 1.6695151378
H 1.0983399754 1.4161731261 -0.6840790311
H 1.3930261723 -0.2070001851 -1.2745071481
N -1.8322594764 1.3863423852 -0.6327246562
H -1.8580574945 0.6074741356 -1.2691531987
C -2.4085777373 2.6619105844 -0.9971476267
H -2.3540740995 3.3029735453 -0.1225285610
H -3.4480755672 2.5427560805 -1.2945657740
H -1.8566327317 3.1278274136 -1.8121450046
C -2.1129407569 -1.9428791519 -0.2626383310
O -2.2759834958 -2.8123251547 -1.1061209512
C -3.1288521395 -1.6396455045 0.8106855671
H -2.7603111259 -1.9717031360 1.7811127431
H -4.0379703272 -2.1816334364 0.5755199320
H -3.3380436171 -0.5737205934 0.8802285155
H 1.3239995042 -1.0628419126 1.0919485581
C 3.0726898149 0.6788385151 -0.2792618239
H 3.2730307231 1.3609647466 0.5485305450
H 3.4545196510 1.1614003584 -1.1826800123
C 3.8529911099 -0.6067175385 -0.0562340600
H 3.5772446129 -1.3288925180 -0.8367673289
H 3.5753275987 -1.0493782013 0.9001314248
N 5.2841243969 -0.3099660524 -0.0016399501
H 5.8082749302 -1.1582376851 0.1726864596
H 5.5915031480 0.0263309126 -0.9063921059
