33
0 1
N -1.6345386942 -1.1594413449 -0.4073590968
C -0.5657929626 -0.3257062746 0.1276536864
C -0.8072670293 1.1287428737 -0.2988895129
O -0.2094128710 1.6476415038 -1.2368490827
C 0.7819783250 -0.8266426481 -0.3527037574
C 1.9425583093 -0.1245940779 0.3391853798
H -1.4962672982 -1.5930723659 -1.3046376944
H -0.6369500170 -0.3946889114 1.2142391077
H 0.8373228892 -1.9017113664 -0.1679922211
H 1.8722521557 -0.2889432056 1.4182925987
H 1.8610837805 0.9496519678 0.1681201263
N -1.7483618105 1.7550497762 0.4423412335
H -2.3056952627 1.1669834154 1.0503457492
C -2.2145416305 3.0761877687 0.0793506363
H -2.9584637656 3.0431679254 -0.7174747642
H -1.3682669155 3.6584859055 -0.2721665186
H -2.6485067762 3.5562477120 0.9515778311
C -2.8341076659 -1.2802193657 0.2111818072
O -3.0984792486 -0.6856831689 1.2566794030
C -3.8242565637 -2.2060430862 -0.4479222227
H -4.7431403367 -1.6557543633 -0.6338174021
H -4.0559813409 -3.0107613930 0.2459713901
H -3.4613590552 -2.6309058362 -1.3803133036
H 0.8510793459 -0.6595605839 -1.4296671283
C 3.2923573710 -0.6193160374 -0.1605725171
H 3.3580137655 -0.4494791963 -1.2393102439
H 3.3869843147 -1.6954638757 -0.0036521891
C 4.4574330608 0.0743077345 0.5228668394
H 4.3526583054 1.1578613133 0.3886914792
H 4.4080216501 -0.1191468701 1.5956895473
N 5.7252235086 -0.4649295245 0.0281198230
H 5.8211920726 -0.2367370952 -0.9543589656
H 6.4994893903 -0.0072173050 0.4930519821
