33
0 1
N -1.3275466218 -0.9576719577 -0.2461950665
C -0.8681014478 -0.0463716182 0.7841855184
C -1.1351867667 1.4220647511 0.4476085128
O -0.5767013407 2.3203053111 1.0667440078
C 0.6053245135 -0.2466590597 1.1284029853
C 1.5426838647 -0.0071799869 -0.0483187308
H -0.7839429978 -1.0246358887 -1.0905817735
H -1.4793129230 -0.2759224888 1.6588526021
H 0.8501356693 0.4529945364 1.9267247139
H 1.3510381142 0.9843984582 -0.4666226067
H 1.3524188524 -0.7358636040 -0.8433016078
N -2.0220846452 1.6376242217 -0.5527099326
H -2.4956112567 0.8316721092 -0.9226739342
C -2.4735323433 2.9712727602 -0.8847085485
H -3.3899618384 3.2323683801 -0.3557801658
H -2.6441789751 3.0498122965 -1.9551823581
H -1.6954622322 3.6679405352 -0.5886260492
C -2.1768468799 -1.9978929152 0.0421830000
O -2.7497093766 -2.1054738573 1.1150667784
C -2.3590816798 -2.9966547714 -1.0758835631
H -1.9737375184 -2.6458343256 -2.0305881671
H -3.4169355115 -3.2241389571 -1.1706764022
H -1.8452568430 -3.9168613206 -0.8037786672
H 0.7368733102 -1.2591741844 1.5148570402
C 3.0094409078 -0.1053290947 0.3519053909
H 3.2039751946 -1.0859032833 0.7963248523
H 3.2209926760 0.6383424209 1.1247897551
C 3.9569934314 0.1086104399 -0.8230548863
H 3.7489072730 -0.6348308808 -1.5953453611
H 3.7580116646 1.0828703123 -1.2732855545
N 5.3844761423 0.0428910002 -0.5142676090
H 5.6058960869 0.7377153665 0.1890688437
H 5.5937734973 -0.8520777051 -0.0879060168
