33
0 1
N 1.5040346826 -1.1856615731 0.1532224561
C 0.6119804116 -0.1018860481 -0.2130492140
C 0.6998382780 0.9786221204 0.8631848961
O 0.3596866892 0.7145921307 2.0139490425
C -0.8236623084 -0.5991751075 -0.3007768928
C -1.7850220788 0.5054963842 -0.7239675293
H 1.2611981978 -1.7028156969 0.9835757799
H 0.9475050969 0.2570152919 -1.1819357401
H -0.8601480770 -1.4232443241 -1.0164137695
H -1.4282296591 0.9468949838 -1.6582577305
H -1.7743650353 1.3014626469 0.0252252088
N 1.1546091644 2.1988556350 0.4984192454
H 1.1851758102 2.8631601685 1.2559033109
C 1.6590800730 2.5979865535 -0.8052669889
H 0.8547756839 2.7353338850 -1.5277792531
H 2.3713196397 1.8684272532 -1.1831036230
H 2.1713771215 3.5486591747 -0.6890851297
C 2.8135498690 -1.1663213398 -0.2287111775
O 3.2555664333 -0.3545670658 -1.0349325019
C 3.6809409813 -2.2307266905 0.3965267179
H 4.3504041595 -1.7548968300 1.1108565599
H 4.2906909066 -2.6819625496 -0.3809398605
H 3.1069774985 -3.0012767083 0.9047734061
H -1.1035446637 -0.9880187213 0.6793881267
C -3.2160466017 0.0149733874 -0.9184140363
H -3.2495131849 -0.7680808010 -1.6781250036
H -3.8281280350 0.8400233175 -1.2925072095
C -3.8514483750 -0.5138674217 0.3573789302
H -3.7296976009 0.2351495014 1.1504065641
H -3.3286100259 -1.4114234164 0.6868571458
N -5.2424213496 -0.8867974599 0.0966162992
H -5.6631589145 -1.2606037862 0.9381444468
H -5.7734577870 -0.0548778939 -0.1320024763
