33
0 1
N -1.8582677362 0.6240870564 0.1104404091
C -0.8044982640 -0.1413939559 -0.5480687444
C -1.2397033875 -1.5884142319 -0.7256522966
O -1.1866814092 -2.1278577178 -1.8221397504
C 0.5441329957 -0.0132820304 0.1665270921
C 1.6335513769 -0.8383943505 -0.5098529998
H -2.7288744507 0.1532243377 0.2965306239
H -0.6761584586 0.2396771699 -1.5618173877
H 0.7963763387 1.0450693589 0.1552257267
H 1.3646670384 -1.8962797215 -0.4729075724
H 1.6812337439 -0.5783082357 -1.5706945238
N -1.7396657282 -2.2535651064 0.3653938989
H -1.9483816607 -3.2145156317 0.1347293316
C -1.4999809886 -1.9696272230 1.7702397608
H -2.2779066797 -2.4504553529 2.3587062559
H -1.5488925074 -0.9019379922 1.9531543545
H -0.5310031605 -2.3380173819 2.1107131381
C -1.8998797060 1.9855982007 -0.0239891576
O -0.9813027634 2.6226441098 -0.5196586936
C -3.1561844675 2.6440297109 0.4946081987
H -3.7930261473 1.9662179420 1.0578971218
H -3.7143402959 3.0396613317 -0.3516706650
H -2.8726974215 3.4824547699 1.1247229617
H 0.4508691454 -0.3133369226 1.2107414758
C 3.0085027245 -0.6486506858 0.1243572985
H 3.7058229836 -1.3906162249 -0.2658877433
H 2.9383242037 -0.8224830668 1.2032236453
C 3.6085941526 0.7262952552 -0.1207351605
H 2.9350544424 1.5021350853 0.2574418578
H 3.6994834296 0.8815369531 -1.1970869363
N 4.9533866637 0.7887212868 0.4580221634
H 5.3578324808 1.7010600713 0.2859593079
H 4.8832065130 0.7077171924 1.4657140091
