33
0 1
N -1.4706136449 -0.9311951293 -0.2473342503
C -0.6599616024 -0.1509376849 0.6672120815
C -0.7783643772 1.3598928144 0.4540852294
O -0.0076271662 2.1320327291 1.0132452867
C 0.8106648081 -0.5590451961 0.6315970452
C 1.4619737593 -0.3476647405 -0.7308310621
H -1.0925115555 -1.1314070185 -1.1579315359
H -1.0717479747 -0.3478571483 1.6584272076
H 1.3195659881 0.0433788244 1.3808294128
H 0.9724278995 -0.9741129506 -1.4821956979
H 1.3196850547 0.6913365755 -1.0399604157
N -1.7734836874 1.7571382856 -0.3722012007
H -2.4051789880 1.0460210375 -0.6974300022
C -2.0832024398 3.1574865514 -0.5594209194
H -2.8533503372 3.4983328537 0.1322958334
H -2.4171951508 3.3305382832 -1.5790488670
H -1.1774748587 3.7257386092 -0.3717449449
C -2.5027673412 -1.7192869401 0.1977077819
O -2.9290222838 -1.6662816185 1.3406669320
C -3.0847379269 -2.6506960545 -0.8391797509
H -2.8338167281 -3.6728105873 -0.5624542962
H -2.7211694486 -2.4562466150 -1.8455488238
H -4.1672682899 -2.5604532626 -0.8196773404
H 0.8926314629 -1.6069675634 0.9275745829
C 2.9525422111 -0.6757477590 -0.7378241968
H 3.3268588089 -0.6144521559 -1.7632663180
H 3.1180948727 -1.7025017861 -0.4059064284
C 3.7798250223 0.2595560233 0.1299231467
H 3.5402818939 1.2960600348 -0.1385191819
H 3.5071893803 0.1344542727 1.1770646215
N 5.1978706828 -0.0796065651 0.0013858998
H 5.5063336059 0.1249632384 -0.9416572912
H 5.7499483510 0.5144156423 0.6073794623
