33
0 1
N -1.1731981492 -1.3299664449 -0.1071429655
C -0.7692073832 -0.4366555193 0.9587603823
C -1.1315710048 1.0329513972 0.7269000523
O -0.9750009168 1.8503331808 1.6268536017
C 0.7401348139 -0.5300423901 1.1913623256
C 1.5829340294 -0.0512566319 0.0148250292
H -0.4586266552 -1.7290709126 -0.6977910075
H -1.2698624508 -0.7177025057 1.8853724369
H 0.9686964676 0.0797942807 2.0648905486
H 1.3404283796 0.9921310240 -0.2013688857
H 1.3485330877 -0.6192882132 -0.8905640106
N -1.5959317824 1.3315882919 -0.5071244506
H -1.6579460735 0.5738502973 -1.1662212218
C -1.9381418621 2.6824432294 -0.8940624986
H -2.9383033495 2.7180246613 -1.3201554774
H -1.2285788644 3.0791175419 -1.6187908292
H -1.9052157562 3.2940753931 0.0024275762
C -2.4035196363 -1.9240786415 -0.2546761429
O -2.5996855145 -2.7592008450 -1.1252200281
C -3.4739752290 -1.4755967594 0.7089686464
H -3.2716606425 -1.8727088546 1.7036015658
H -4.4239869148 -1.8661272961 0.3617920699
H -3.5222244687 -0.3910469519 0.7859893143
H 0.9880555221 -1.5658506451 1.4344618317
C 3.0737149202 -0.1729424358 0.3002854336
H 3.3191887199 -1.2181034344 0.5115307751
H 3.3314227117 0.3974153978 1.1939572187
C 3.9308230786 0.3167982824 -0.8536500784
H 3.6529085949 -0.2310664904 -1.7631150898
H 3.7114687145 1.3697012712 -1.0371978926
N 5.3484626068 0.2080841416 -0.5081797325
H 5.5944228377 -0.7699278376 -0.4112824686
H 5.9172401690 0.5610744189 -1.2677110286
