33
0 1
N 1.7760255930 -0.6179547777 0.3481581167
C 0.9605362153 0.4012072152 -0.2605306061
C 0.9525629755 1.5867700905 0.6903213865
O 1.2375079876 1.4517565844 1.8768115078
C -0.4757541873 -0.0909957548 -0.5106610611
C -1.2138967314 -0.4630823468 0.7691564634
H 1.9822364221 -0.4955935953 1.3275541237
H 1.4077821480 0.6667643501 -1.2194570874
H -1.0254680506 0.6791319369 -1.0527045703
H -0.5814427242 -1.1285039580 1.3587600848
H -1.3772907216 0.4299306737 1.3782599614
N 0.5343586144 2.7741792872 0.1789735305
H 0.5792157431 3.5250450617 0.8509191822
C 0.4994773337 3.1319240048 -1.2275491401
H -0.0579690197 2.3983680084 -1.8012967585
H 1.4965574515 3.2304199543 -1.6581910206
H -0.0139834066 4.0841226032 -1.3243844862
C 2.3208347738 -1.6157225594 -0.3920667314
O 2.1176324329 -1.7224338572 -1.5976354154
C 3.1910638851 -2.5864814472 0.3688484071
H 2.7880412777 -3.5878566176 0.2380239471
H 3.2587361067 -2.3603900327 1.4299615128
H 4.1869811082 -2.5730303162 -0.0677280623
H -0.3980946986 -0.9588497787 -1.1684311428
C -2.5534369231 -1.1440414674 0.5022128351
H -2.9880575504 -1.4686272747 1.4511671075
H -2.3936335951 -2.0466136977 -0.0949504952
C -3.5664143786 -0.2489424798 -0.2060592408
H -3.6794524288 0.6784607202 0.3602980477
H -3.1928662142 0.0348415941 -1.1901667092
N -4.8965034686 -0.8264275362 -0.3947951692
H -4.8164281424 -1.6766598388 -0.9400145241
H -5.2656868273 -1.1144047487 0.5038370061
