29
0 1
N 0.6798602412 1.0105860814 -0.4717595412
H 0.1875601252 1.0439345547 -1.3532079332
C 0.4638152364 -0.1236906664 0.3991956061
H 0.3592620136 0.2141448704 1.4311863450
C -0.8212104697 -0.8482277643 0.0013595317
H -0.8764240588 -1.7684901240 0.5807284689
H -0.7584103950 -1.1291673483 -1.0540505958
C -2.0582648853 0.0020201525 0.2445310023
H -1.9958016458 0.9506517863 -0.2904297885
H -2.1565557283 0.2166914707 1.3105004201
S -3.5252988822 -0.8947463855 -0.3241114954
C -4.7610123564 0.3653713577 0.0566168267
H -5.7288684143 -0.0294375916 -0.2416408022
H -4.5649392027 1.2793391054 -0.5000442543
H -4.7800172719 0.5778570059 1.1233594327
C 1.6086723431 -1.1421374867 0.4192340325
O 1.6101937754 -2.0421191090 1.2503493735
N 2.5556225764 -0.9701243252 -0.5298964920
H 2.4414050817 -0.1918347163 -1.1567703831
C 1.3718368831 2.1603411788 -0.1747474652
O 1.4397596022 3.0799377566 -0.9762004972
C 2.0317067844 2.1980446318 1.1810728705
H 2.6311053404 1.3070833319 1.3607980864
H 1.2785800415 2.2576703322 1.9665050731
H 2.6593545236 3.0809320383 1.2254167981
C 3.6800177697 -1.8702552002 -0.6660992447
H 4.6148420941 -1.3147211519 -0.6852511923
H 3.6705222628 -2.5330534927 0.1937151186
H 3.6017276157 -2.4673162926 -1.5732123011
