29
0 1
N 0.8952572624 1.0599782739 -0.4639470010
H 0.4975612700 1.2344109377 -1.3760069600
C 0.3599940220 -0.0241875447 0.3287433789
H 0.2742462835 0.2860942974 1.3712548980
C -1.0345051782 -0.3981316308 -0.1730041690
H -1.3285701349 -1.3075113978 0.3475973509
H -0.9861011261 -0.6331623949 -1.2397801922
C -2.0497328931 0.7084080587 0.0674111734
H -1.7487899639 1.6315395504 -0.4285676811
H -2.1290852612 0.9246562152 1.1352895176
S -3.6982058902 0.3383166325 -0.5808551912
C -4.1521787611 -1.0145220900 0.5272091130
H -5.1904483939 -1.2584140377 0.3162961609
H -4.0700736513 -0.6990942062 1.5656718239
H -3.5449434053 -1.8997279393 0.3584640078
C 1.2224940446 -1.2901423618 0.3516798901
O 0.9413237824 -2.2061133677 1.1159393832
N 2.2571090657 -1.3051537736 -0.5175783880
H 2.3822674281 -0.4921103531 -1.0964874265
C 1.8205727403 1.9964871961 -0.0687716744
O 2.1678957923 2.8951282852 -0.8198131964
C 2.3651097490 1.8330651908 1.3284059629
H 1.5900458865 2.0489960430 2.0634720883
H 3.1794970731 2.5372044081 1.4563360549
H 2.7200751342 0.8191068623 1.5052227860
C 3.1429767307 -2.4424234436 -0.6396406936
H 4.1812657713 -2.1286503199 -0.5600783184
H 2.9080094196 -3.1250167997 0.1712202803
H 2.9982472037 -2.9572792904 -1.5880499785
