29
0 1
N -0.4367523026 0.8932928193 0.6744425602
H -0.3337988229 1.0445583193 1.6641861948
C -0.2970226946 -0.4620867537 0.1634948541
H 0.0051946112 -0.3580902045 -0.8789491079
C 0.7539968153 -1.2176653776 0.9571210764
H 0.8232266842 -2.2278040096 0.5543577758
H 0.4058043426 -1.3254686183 1.9860081817
C 2.1225290958 -0.5525059768 0.9380040889
H 2.0732842664 0.4538155667 1.3570706411
H 2.8242892261 -1.1370183306 1.5335862808
S 2.7525359834 -0.4410858542 -0.7591350331
C 4.3505656505 0.3106748328 -0.3845574660
H 4.8716110214 0.4530363777 -1.3278199194
H 4.9444944146 -0.3402363037 0.2537352547
H 4.2181096819 1.2784738574 0.0947728727
C -1.6485164395 -1.1845260108 0.2219459261
O -1.9078900406 -2.0232216863 1.0790557864
N -2.5011811071 -0.7862706927 -0.7488396196
H -2.2141879449 0.0100960949 -1.3047745159
C -0.8739325328 1.9157994244 -0.1041482140
O -1.1844956082 1.7587730452 -1.2838252028
C -0.9336068020 3.2670489678 0.5613623819
H -0.2360504897 3.9287408518 0.0527615434
H -0.6881948070 3.2364145514 1.6200412066
H -1.9323245667 3.6757837993 0.4311616731
C -3.8683803172 -1.2564147384 -0.7945302786
H -4.1743321178 -1.4056727686 -1.8266926179
H -3.9156920483 -2.2012072094 -0.2622073632
H -4.5547071515 -0.5553239727 -0.3190559603
