29
0 1
N -0.8139696025 0.9318997315 0.3808284960
H -0.6152787157 0.8711921782 1.3670642032
C -0.5967511367 -0.2601740432 -0.4169443068
H -0.6789130373 0.0697659194 -1.4550036606
C 0.7889300803 -0.8582597553 -0.1848108184
H 0.8496408612 -1.7997509817 -0.7261785160
H 0.8966398378 -1.0941893815 0.8774711051
C 1.8916170533 0.0847325690 -0.6374729992
H 1.8171628374 1.0551635429 -0.1431093951
H 1.8119445857 0.2653477997 -1.7101118530
S 3.5642259995 -0.5596719853 -0.3744542856
C 3.6407392115 -0.4311187036 1.4253851618
H 4.6523916163 -0.6992146287 1.7200637122
H 2.9470311168 -1.1127501925 1.9112385987
H 3.4438353499 0.5914942932 1.7435636169
C -1.6776056643 -1.3234671300 -0.2119961762
O -1.5076783573 -2.4743263425 -0.5932203786
N -2.8069923610 -0.8883775431 0.3972329475
H -2.8782850863 0.0990012933 0.5722336268
C -0.8050781567 2.1850237159 -0.1853564025
O -0.8301701023 2.3621367855 -1.3925421751
C -0.7706000672 3.3269125470 0.8016408869
H -0.9894766073 3.0191545738 1.8215005975
H -1.4858564836 4.0809766902 0.4862113433
H 0.2199012313 3.7779175631 0.7723486775
C -3.9649147693 -1.7439312417 0.5399022940
H -4.4395520273 -1.5741108200 1.5029294516
H -4.6932310694 -1.5739067187 -0.2525559153
H -3.6229195369 -2.7722897347 0.4795951634
