29
0 1
N 1.0569720450 0.9484163601 -0.3885125406
H 0.9592798282 1.0122728756 -1.3897399639
C 0.5120693043 -0.2299480873 0.2580522668
H 0.4679938284 0.0175231253 1.3210971885
C -0.8905645114 -0.5528172169 -0.2492015449
H -1.1799192977 -1.5078220565 0.1840662965
H -0.8680180783 -0.6871264792 -1.3342844302
C -1.8851538925 0.5372016999 0.1130774588
H -1.5774096507 1.4970873361 -0.3042094788
H -1.9421087428 0.6608718492 1.1965077323
S -3.5499984034 0.2574573510 -0.5414275932
C -4.0027186653 -1.1998144089 0.4261688501
H -5.0472445074 -1.4098835072 0.2094891166
H -3.8990539630 -0.9956750684 1.4901885143
H -3.4076484678 -2.0674687173 0.1545609943
C 1.4133311048 -1.4604614984 0.1429250840
O 0.9927588563 -2.5726522904 0.4379026291
N 2.6739984779 -1.2165661095 -0.2850984612
H 2.9334341809 -0.2530404876 -0.4075430872
C 1.2388862547 2.1249729475 0.3001114327
O 1.1677403949 2.1924535129 1.5167240238
C 1.5388091400 3.3258722453 -0.5640651676
H 1.8292430051 3.0606206389 -1.5780158885
H 2.3301456630 3.9036320686 -0.0957979066
H 0.6493539573 3.9526332526 -0.6043423035
C 3.6755200409 -2.2594336452 -0.3284681810
H 4.2749553258 -2.1679811410 -1.2307724957
H 4.3307799303 -2.2245668818 0.5412994235
H 3.1558018427 -3.2123646678 -0.3333949685
