29
0 1
N -1.5576069181 -1.0714097975 -0.3879709170
H -1.3143078783 -1.7381738232 -1.1025486708
C -0.4738331349 -0.3901491203 0.2990077709
H -0.4355052137 -0.7142143780 1.3403251046
C 0.8367756299 -0.7328983814 -0.4117472432
H 0.7960044910 -0.3573053767 -1.4371401125
H 0.9184352123 -1.8222064407 -0.4620600969
C 2.0677538006 -0.1788737555 0.2875086894
H 2.1043980827 -0.5268376237 1.3205034978
H 2.0514645540 0.9087059095 0.2988123912
S 3.5426028435 -0.7553103508 -0.5960400176
C 4.7830174219 0.1166486873 0.3847030410
H 5.7573090745 -0.1292501939 -0.0299986837
H 4.7487793344 -0.2045688733 1.4233989695
H 4.6324706073 1.1922530285 0.3259229569
C -0.6593527009 1.1240565740 0.3551155543
O -0.0702388157 1.7881045723 1.1995141745
N -1.4212156342 1.6519673620 -0.6305299002
H -1.9771164328 1.0047460937 -1.1625764740
C -2.7780619247 -1.2054594093 0.2264739526
O -3.0536975794 -0.5849527133 1.2410669000
C -3.7406988985 -2.1551361509 -0.4444285129
H -3.4574481678 -2.3964466268 -1.4662872419
H -4.7317008797 -1.7111839075 -0.4345082780
H -3.7820318848 -3.0747655846 0.1368118438
C -1.7442523756 3.0623773031 -0.6482635328
H -1.8692513076 3.3989910857 -1.6739085332
H -2.6528751113 3.2745623300 -0.0848913908
H -0.9211671943 3.5995545614 -0.1879222409
