29
0 1
N 1.3398606112 -0.3956746348 -0.3608272012
H 1.0559085838 -0.6497459358 -1.2912367227
C 0.6134704421 -0.9574474121 0.7647126652
H 1.2866553918 -1.5862798199 1.3467529790
C 0.0815075824 0.1359510624 1.7035991201
H 0.9168590390 0.7911751831 1.9440227360
H -0.2320811745 -0.3544412076 2.6271559232
C -1.1021362057 0.9435280920 1.1885887155
H -1.9775492154 0.3059108061 1.0468566094
H -1.3580236851 1.7051742936 1.9260379035
S -0.7645697316 1.8091313093 -0.3787327800
C -2.3187240171 2.7296994125 -0.4593775524
H -2.3094126699 3.3104117726 -1.3782373786
H -2.4033757572 3.4064599372 0.3883283627
H -3.1695235952 2.0513178153 -0.4752351492
C -0.5240817714 -1.8544483815 0.3017587553
O -0.8549287079 -2.8433349558 0.9421986998
N -1.1455399059 -1.4745223095 -0.8523059639
H -1.0693636647 -0.4954498383 -1.1087146892
C 2.5628394969 0.1842124317 -0.1862143472
O 3.0666753229 0.3276139968 0.9204307233
C 3.2131501966 0.6885362654 -1.4511218302
H 2.8557836745 0.1789213537 -2.3432156168
H 4.2885177525 0.5688435442 -1.3636305321
H 2.9943300640 1.7510211150 -1.5487781949
C -2.3399755933 -2.1899607322 -1.2626922976
H -3.1594214511 -2.0537576545 -0.5557577014
H -2.6423718328 -1.8349479271 -2.2434084439
H -2.1203691790 -3.2520365820 -1.3159327916
