29
0 1
N -1.7809105907 -0.2683549901 -0.2999687999
H -1.9498127738 0.1479149916 -1.2035508602
C -0.7879915320 0.3830230115 0.5129631171
H -1.2160606796 0.5783571143 1.4996133301
C 0.4629931354 -0.4902444390 0.6985362721
H 0.1486251359 -1.4265743715 1.1580930539
H 1.1411481738 0.0054828145 1.3953069036
C 1.1705825027 -0.7638695853 -0.6179867229
H 1.4883793966 0.1621822979 -1.1017186530
H 0.4939701665 -1.2737602674 -1.3037023450
S 2.6091368438 -1.8516560198 -0.4617374490
C 3.7163745240 -0.7363863780 0.4285559238
H 4.6897007556 -1.2192931673 0.4684158886
H 3.3781270501 -0.5540883237 1.4455582048
H 3.8145112114 0.2071505675 -0.1059387794
C -0.4390210723 1.6972831840 -0.1742670757
O -0.7945951368 1.9462430911 -1.3224042504
N 0.3385628728 2.5297398008 0.5564476173
H 0.4856379706 2.3134026506 1.5266829413
C -2.6141443093 -1.2016210636 0.2319598199
O -2.5035592350 -1.5892629113 1.3898959130
C -3.6670867881 -1.7389676970 -0.7058999866
H -3.5075491087 -2.8077318857 -0.8288000677
H -3.6541060103 -1.2603022048 -1.6817367456
H -4.6427465870 -1.6019089913 -0.2463824148
C 0.7536057288 3.8207779912 0.0462135951
H 0.0206700391 4.5979075321 0.2606779696
H 1.7073582951 4.0959564668 0.4872752891
H 0.8619770212 3.7403377819 -1.0306276890
