29
0 1
N 0.8289861834 1.3531444166 -0.0357427637
H 1.7353180854 1.6290232245 -0.3808561134
C 0.8396520100 0.2571226530 0.9287661159
H 1.0556251012 0.6283466716 1.9326476396
C -0.4855853193 -0.5194296656 0.9893577028
H -1.2379692759 0.1252627066 1.4305988004
H -0.3253731323 -1.3658412886 1.6573022949
C -0.9622655929 -1.0186612113 -0.3662822605
H -0.3162001291 -1.8127279819 -0.7431155199
H -0.9670174508 -0.2134333980 -1.1030341090
S -2.6272458531 -1.7317180686 -0.3084331804
C -3.5727647257 -0.1964533237 -0.1780953877
H -4.6210012316 -0.4771346301 -0.1087720626
H -3.4253535344 0.4182577916 -1.0635601881
H -3.2962913084 0.3719948851 0.7054591380
C 1.9543895506 -0.7271619580 0.5972468891
O 2.4378785541 -1.4438172372 1.4618423710
N 2.3490755089 -0.7685079554 -0.7058859422
H 1.7484127575 -0.3286682781 -1.3830412953
C -0.1269368514 2.3374855377 -0.0651685558
O -1.1799224105 2.2776228164 0.5520778726
C 0.2164454400 3.5150730132 -0.9492653332
H 0.4857878489 4.3573799027 -0.3140426250
H -0.6698694580 3.7945256683 -1.5112352744
H 1.0355629214 3.3125545235 -1.6351714378
C 3.2675265880 -1.8026118447 -1.1430961617
H 2.7916778271 -2.7829703208 -1.1693648664
H 3.6392797739 -1.5534255265 -2.1323638198
H 4.0977491230 -1.8503411224 -0.4454599273
