29
0 1
N -1.9370745001 -0.2130698403 -0.2174859603
H -2.5206688236 0.5839585962 -0.4168492097
C -0.7233508190 0.0305501104 0.5529331941
H -0.8573100620 -0.3092709569 1.5809091411
C 0.4733023557 -0.7066573482 -0.0659645879
H 0.6877853819 -0.2671092844 -1.0423764479
H 0.1879788435 -1.7443262964 -0.2228368609
C 1.7015376738 -0.6472547730 0.8296870812
H 1.5210545526 -1.2153949333 1.7426952924
H 1.9387333263 0.3744872038 1.1281019211
S 3.1734016656 -1.3853664024 0.0735446112
C 3.5691602409 -0.0677743569 -1.0969508441
H 4.4953578761 -0.3479820262 -1.5928555344
H 3.7210670741 0.8740757801 -0.5727534113
H 2.7948315447 0.0485666347 -1.8519224401
C -0.4245653112 1.5186881080 0.6066909373
O 0.0071873790 2.0656680167 1.6118734327
N -0.6503683961 2.1911964614 -0.5593845657
H -0.7858820780 1.6456117902 -1.3941864631
C -2.5733222638 -1.4257810825 -0.1164593996
O -2.0652780429 -2.3860302439 0.4418129994
C -3.9425150207 -1.4826861357 -0.7504372652
H -4.6912035785 -1.5031576542 0.0395374268
H -4.0259090338 -2.4094563818 -1.3105405409
H -4.1411592110 -0.6400925092 -1.4082451678
C -0.2371971870 3.5755398682 -0.6884008362
H 0.8434149850 3.6702976459 -0.7961219851
H -0.7262899643 4.0148869894 -1.5526339021
H -0.5347626070 4.1114700205 0.2072903850
