29
0 1
N -2.0168016457 -0.3781704596 -0.1202037789
H -2.6925913038 0.3545052742 -0.2652243246
C -0.7441875942 -0.0041206087 0.4834270678
H -0.6962426146 -0.3721286653 1.5088540383
C 0.4289811758 -0.5906507591 -0.3115513137
H 0.4121699737 -0.1874148096 -1.3267144025
H 0.2789036624 -1.6668818208 -0.3764072563
C 1.7663904863 -0.2895295304 0.3458854393
H 1.7986826715 -0.7246965822 1.3460909333
H 1.9285067026 0.7847716092 0.4394908364
S 3.0944669094 -1.0011841059 -0.6599813965
C 4.4937585977 -0.4662526238 0.3482517738
H 5.3993071165 -0.8199734082 -0.1382315501
H 4.4369526485 -0.8967546549 1.3456945557
H 4.5286855621 0.6189928316 0.4166848655
C -0.6196362892 1.5087758397 0.5468673962
O -0.1767785634 2.0906389616 1.5269488305
N -1.0253709041 2.1624206425 -0.5805150833
H -1.1519415543 1.6149961150 -1.4156552460
C -2.5021690629 -1.6504762902 0.0425945714
O -1.8283752566 -2.5500389119 0.5216046956
C -3.9260193628 -1.8546801537 -0.4165331220
H -4.2952707114 -1.0377941146 -1.0317550034
H -4.5629645147 -1.9570356098 0.4602444182
H -3.9790692953 -2.7842360361 -0.9757116429
C -0.7966777194 3.5888002787 -0.7125889119
H 0.2499978869 3.8171677312 -0.9135537070
H -1.4118430325 3.9757721581 -1.5194046669
H -1.0750879684 4.0718557029 0.2185689839
