29
0 1
N -2.0043691697 0.2834309381 -0.0949865136
H -2.1132402696 1.2819628784 -0.1702552581
C -0.7380801033 -0.2119933301 0.4268669494
H -0.8913813363 -0.6343937214 1.4209829163
C -0.1650466263 -1.3151208104 -0.4725483978
H -0.1504830598 -0.9686178311 -1.5087782209
H -0.8581819410 -2.1530111085 -0.4219683609
C 1.2317112505 -1.7507929825 -0.0379962006
H 1.3450948424 -1.6393746670 1.0412286606
H 1.4065660132 -2.7935347981 -0.2945516406
S 2.5102988216 -0.7246256811 -0.8331556583
C 3.6592976972 -0.5389991985 0.5482909680
H 4.4872988629 0.0717423316 0.1953252730
H 4.0467906593 -1.5042920192 0.8652504830
H 3.1589309605 -0.0333686066 1.3715310678
C 0.2395592910 0.9398593774 0.5994496275
O 0.9476003373 1.0402727402 1.5929515198
N 0.2324470952 1.8632252701 -0.4068987235
H -0.1173498712 1.5356366723 -1.2939344848
C -3.1404281276 -0.4710761212 0.0220230083
O -3.1179146623 -1.6355880558 0.3943567668
C -4.4214660593 0.2389267169 -0.3453713073
H -4.9893905817 0.4227515651 0.5647710154
H -5.0119750243 -0.4180839934 -0.9774255103
H -4.2535847457 1.1829784768 -0.8578518495
C 1.2976308003 2.8483431734 -0.4464373473
H 1.0642689048 3.5950894562 -1.1995862559
H 1.3678998101 3.3252669697 0.5257711871
H 2.2565282316 2.3804003588 -0.6736667135
