29
0 1
N 0.5533198200 0.7917651101 -0.5497119433
H 0.6315521927 0.7271677621 -1.5537988476
C 0.3020244651 -0.4155338724 0.1999819576
H -0.2494517103 -0.1605539084 1.1036366501
C -0.5643108078 -1.3722865602 -0.6175701122
H -0.7145210814 -2.2757380754 -0.0257882985
H -0.0322642552 -1.6650331258 -1.5274786825
C -1.9070697068 -0.7663463228 -1.0053174740
H -1.7647506315 0.1486038558 -1.5817642984
H -2.4698679485 -1.4752091832 -1.6133565089
S -2.8710977063 -0.3644626846 0.4771326103
C -4.2691308997 0.4275641826 -0.3458030300
H -4.9671280143 0.7362325187 0.4281369621
H -4.7691493306 -0.2687941791 -1.0156888259
H -3.9415908803 1.3054473846 -0.8987026017
C 1.5333383864 -1.1583891086 0.7212967045
O 1.4514672525 -1.7656636790 1.7833420704
N 2.6896849158 -1.1352455654 0.0040517961
H 3.4181450796 -1.6700616493 0.4506279341
C 1.1246609905 1.9299154732 -0.0392574951
O 1.5811942001 2.7900330341 -0.7807447377
C 1.1230871148 2.0459088913 1.4632042718
H 1.7129947917 1.2516761126 1.9201465074
H 0.1081630220 1.9672254354 1.8512780473
H 1.5449625691 3.0086205013 1.7287583892
C 2.9504107553 -0.6349952214 -1.3343741079
H 3.0317259874 0.4495241011 -1.3687845346
H 3.8941681645 -1.0597514722 -1.6657981046
H 2.1882592652 -0.9581697551 -2.0416382979
