29
0 1
N -1.6919900601 -0.8203169162 -0.1369479966
H -2.5895746534 -0.3875892375 -0.2855613277
C -0.6597654438 -0.0102889590 0.4988460768
H -0.5204963254 -0.3271320054 1.5332761637
C 0.6744695553 -0.1432026533 -0.2471954049
H 0.5654665991 0.2377661583 -1.2646068385
H 0.8984044442 -1.2055381590 -0.3104102033
C 1.8023286026 0.5930279089 0.4584144496
H 1.9137562311 0.2362045345 1.4840043041
H 1.6034400505 1.6633173302 0.5133551507
S 3.3946934780 0.4398812511 -0.3903923987
C 3.7150702784 -1.3132755893 -0.0930712173
H 4.7120026421 -1.5210262246 -0.4740162231
H 3.0029211595 -1.9504119891 -0.6106033468
H 3.6940563305 -1.5268197998 0.9738281753
C -1.0815720776 1.4483086533 0.5331965610
O -0.8767293716 2.1657779071 1.5019939356
N -1.6843241872 1.8970495558 -0.6061414611
H -1.6008505697 1.3259214694 -1.4308702735
C -1.6787317616 -2.1837796147 0.0048769862
O -0.7297528726 -2.7831350607 0.4892774359
C -2.9201757618 -2.8894506889 -0.4854772724
H -3.4814801874 -3.2440475828 0.3771126009
H -2.6190360439 -3.7576623916 -1.0644623750
H -3.5606583977 -2.2524509750 -1.0904997363
C -1.9676442151 3.3109662355 -0.7653396151
H -1.0650322133 3.8874113151 -0.9678030754
H -2.6719624843 3.4441814387 -1.5809933169
H -2.4059107446 3.6822370887 0.1554952430
