29
0 1
N 0.9183263993 1.0573584876 -0.2462590675
H 0.7515619718 0.8828884870 -1.2237501430
C 0.6641189943 -0.0209521509 0.6919244073
H 1.0360050988 0.3413391062 1.6525837166
C -0.8226139903 -0.3383606975 0.8508182195
H -1.3130224896 0.5723886577 1.1951566264
H -0.9358868371 -1.0960095734 1.6236209272
C -1.4587915909 -0.8436712086 -0.4341636268
H -1.0279097462 -1.8068414103 -0.7070902687
H -1.2975248643 -0.1508829235 -1.2639008079
S -3.2416478942 -1.1324639381 -0.3015514252
C -3.8037800164 0.5816014784 -0.2132934669
H -4.8908073670 0.5589810932 -0.2065636174
H -3.4709970364 1.1387030827 -1.0876645315
H -3.4611611055 1.0744480615 0.6929517144
C 1.4669960369 -1.2742585275 0.3510070021
O 1.1094385963 -2.3822381301 0.7305751986
N 2.5913786460 -1.0612962836 -0.3779650846
H 2.8693846980 -0.1059144021 -0.5236443195
C 0.9010926099 2.3650701807 0.1741684020
O 0.8695554866 2.6722974677 1.3554200887
C 0.9424048489 3.3925419589 -0.9309392658
H -0.0159231625 3.9075469795 -0.9594370870
H 1.1451688221 2.9631940976 -1.9092283639
H 1.7045302060 4.1289979260 -0.6916252229
C 3.5252916630 -2.1373687480 -0.6345964195
H 2.9605314738 -3.0597465349 -0.7260930087
H 4.0598404214 -1.9443827313 -1.5604095010
H 4.2432771274 -2.2556068048 0.1768909251
