35
0 1
N 2.3732672985 -0.2516969310 -0.2237858874
H 3.1038138835 0.3829781315 0.0708770538
C 1.2153643139 0.4197796942 -0.7921013987
H 1.5702488077 1.0214147066 -1.6311830440
C 0.0920381334 -0.4708063213 -1.3370703253
C 0.6007435288 1.4433493272 0.1615810217
H 0.5423283208 -1.2439994708 -1.9547280653
H -0.4225127711 -0.9680996692 -0.5157223273
C -0.9228309173 0.3269908213 -2.1784415487
O 0.1926673437 2.5172261586 -0.2951822019
H -1.0123181133 -0.1271737420 -3.1662574985
H -0.5623219251 1.3441136706 -2.3314624956
C -2.3262378590 0.4004523168 -1.5808006956
H -2.7378724463 -0.6000917149 -1.4507904701
H -2.9805813735 0.9100517035 -2.2905191220
N -2.3982279596 1.0896736822 -0.3093125056
H -1.8871362876 1.9626055005 -0.2669447958
C -2.5292721078 0.4473544377 0.8999030317
N -2.6564277165 -0.8059063532 1.1599081216
N -2.5067076186 1.3509422490 1.9739724579
H -2.5744011431 -1.3599743346 0.3137195035
H -2.8394185755 0.8848730245 2.8061952514
H -3.0439285618 2.1859467479 1.7887539040
N 0.4721422836 1.1415422844 1.4702896962
C 0.6524034801 -0.1308034111 2.1523884981
H -0.1216295330 1.8083584857 1.9437233136
H 1.7010465880 -0.3563389037 2.3254264830
H 0.1780160088 -0.9510254394 1.6193861983
H 0.1500286403 -0.0496659966 3.1122486353
C 2.7084493161 -1.5276384781 0.1559942795
C 1.8183203787 -2.6966583560 -0.1861843566
O 3.7615092456 -1.7060794592 0.7580874347
H 0.7956185006 -2.5593328388 0.1506138062
H 1.8034591904 -2.8684470329 -1.2603060347
H 2.2462316467 -3.5650354896 0.3028210826
