29
0 1
N -1.3984024715 -0.9751717492 -0.8051409418
H -1.1273409667 -1.3418814856 -1.7064829841
C -0.3508583901 -0.6453785135 0.1404544479
H -0.4389725312 -1.2414494808 1.0506877733
C 1.0026756890 -0.9425089496 -0.5169416915
H 1.1386820082 -0.2522124731 -1.3527720006
H 0.9674356681 -1.9522332920 -0.9305843081
C 2.1802910267 -0.8474756689 0.4421134060
H 2.0980770715 -1.6155278757 1.2115042400
H 2.2054386064 0.1148312354 0.9499609984
S 3.7721942863 -1.1326530646 -0.3746449681
C 3.9461618408 0.4626611940 -1.2048087151
H 4.9134366266 0.4592449788 -1.7012681916
H 3.9241820705 1.2725203736 -0.4785131300
H 3.1734078161 0.6154593686 -1.9545679931
C -0.3775118413 0.8160883534 0.5899529913
O 0.1427260991 1.1550659555 1.6478065842
N -0.9491330723 1.6696515195 -0.2899876648
H -1.4146970271 1.2585195180 -1.0821143084
C -2.7216002855 -1.2033701793 -0.4953205368
O -3.4984182588 -1.6314395214 -1.3341615267
C -3.1295423151 -0.8837646774 0.9206453727
H -2.8193777412 0.1170423829 1.2155782228
H -2.6697972233 -1.5879217883 1.6138048171
H -4.2079623046 -0.9717582280 0.9887257430
C -1.0340457757 3.0922061860 -0.0406311246
H -0.6061038423 3.6546459477 -0.8676620794
H -2.0661315700 3.4062938307 0.1064861577
H -0.4691791923 3.2961811032 0.8637514104
