29
0 1
N 0.6185318877 1.0233341858 -0.1070526030
H -0.1877999349 0.9900388884 -0.7165100201
C 0.6838605780 0.0257658798 0.9418203595
H 1.4575669560 0.3816595611 1.6254583535
C -0.6216466737 -0.1214786634 1.7252411806
H -0.9146119715 0.8579303484 2.1066402674
H -0.4104864786 -0.7634339176 2.5793854749
C -1.7691429249 -0.7616789548 0.9525251452
H -1.4310213860 -1.6833468624 0.4782071605
H -2.5785659206 -1.0116470063 1.6387276093
S -2.4505821327 0.3418807649 -0.3250868062
C -3.5440130438 -0.8454006672 -1.1332384694
H -4.0542198401 -0.3255554356 -1.9399474493
H -4.2834055313 -1.2182199055 -0.4277286930
H -2.9726814656 -1.6746491365 -1.5440205893
C 1.1548921417 -1.3421054470 0.4466463516
O 1.0262483560 -2.3407266517 1.1478737935
N 1.7167540084 -1.3478720111 -0.7829840850
H 1.8219521075 -0.4548191005 -1.2337863793
C 1.2970754643 2.2108294061 0.0052305712
O 2.1411887099 2.4158617946 0.8649642306
C 0.9322889687 3.2454689153 -1.0319794546
H 0.2556694375 2.8657883382 -1.7936879112
H 1.8433309741 3.6102510898 -1.4990446520
H 0.4627343703 4.0862908852 -0.5253931405
C 2.3217990095 -2.5368657652 -1.3398941441
H 2.0483243489 -2.6456560387 -2.3866474366
H 3.4077548707 -2.5117462157 -1.2556967993
H 1.9491721143 -3.3873502786 -0.7773468649
