35
0 1
N 1.4748687083 1.4367396283 -0.7372514149
H 1.1090922646 1.6206594716 -1.6607632207
C 0.7863287269 0.4582710336 0.0811685031
H 0.3593267732 0.9174139341 0.9747898613
C -0.3498858118 -0.1448913557 -0.7468860360
C 1.6982072668 -0.6593073286 0.5862664227
H -1.0075810635 0.6708494391 -1.0551853235
H 0.0773714290 -0.5872080736 -1.6524306266
C -1.1786245093 -1.1868138302 -0.0121820388
O 1.4323581599 -1.2655351638 1.6183593978
H -1.4753049223 -0.7908859428 0.9614018568
H -0.5833460516 -2.0757991597 0.1964011085
C -2.4112061816 -1.5857796376 -0.8180377258
H -2.9440580505 -2.3876218382 -0.3065562163
H -2.0882511408 -1.9771891739 -1.7839147153
N -3.3140408824 -0.4665323214 -1.0686760483
H -3.4832906203 -0.2502298590 -2.0386672578
C -4.4947567234 -0.3153785670 -0.3598637053
N -5.5192043701 0.1794649822 -0.9523715131
N -4.4188967833 -0.7736360565 0.9542394536
H -6.2693599101 0.3347497011 -0.2852102700
H -3.5372913347 -0.6003936355 1.4109662986
H -5.1985422001 -0.4821775350 1.5208581935
N 2.7442755082 -0.9445472232 -0.2234146559
C 3.6979880108 -1.9870225231 0.0866675708
H 2.9095467677 -0.3098154774 -0.9871170015
H 3.8129285527 -2.6661990336 -0.7551987935
H 3.3124581037 -2.5347677534 0.9409959485
H 4.6713648424 -1.5710159153 0.3425823962
C 2.3112433904 2.4293253351 -0.2741136583
C 2.7038673540 2.3332779984 1.1784632498
O 2.7062127847 3.3149391635 -1.0158349539
H 3.4425563713 3.1008356418 1.3797154988
H 1.8361042826 2.4945940724 1.8175184176
H 3.1114632585 1.3536630033 1.4214099978
