29
0 1
N 0.5874082687 0.7007176968 -0.0938042307
H -0.1650564488 0.7613777342 -0.7653414163
C 0.6252865555 -0.4766502179 0.7516071961
H 1.3948884132 -0.2624429028 1.4966211708
C -0.6912099413 -0.7091896611 1.4913721384
H -0.8612304706 0.1488458382 2.1445690358
H -0.5604768405 -1.5858333092 2.1263541818
C -1.9254997771 -0.9579227357 0.6287827404
H -1.7217813844 -1.7430585919 -0.0953048497
H -2.7452932486 -1.2822077719 1.2709457768
S -2.4986110226 0.5339873724 -0.2464508707
C -3.9007466898 -0.2167710029 -1.1001151841
H -4.3772173681 0.5577423063 -1.6954652326
H -4.6182575234 -0.6036596396 -0.3794339958
H -3.5662566845 -1.0182699917 -1.7547244384
C 1.0626081641 -1.7134858589 -0.0357418253
O 0.3801204743 -2.7342015262 -0.0761614338
N 2.2555846432 -1.6327898670 -0.6752206260
H 2.4778378684 -2.4650327508 -1.1985273193
C 1.2244540880 1.8528630650 0.2630193694
O 2.0169481959 1.9109697982 1.1973876666
C 0.9228611291 3.0430898603 -0.6131837999
H 1.8129951675 3.2867908564 -1.1902956964
H 0.7013257051 3.8932633649 0.0264251179
H 0.0912468698 2.8700433644 -1.2918360654
C 3.2101880778 -0.5428721833 -0.6729982230
H 3.1368571063 0.0378970115 0.2417686833
H 4.2135547474 -0.9588114528 -0.7282840976
H 3.0628739253 0.1306141951 -1.5174087723
