29
0 1
N 1.0074323231 -1.0442667280 -0.0228546273
H 0.4190541683 -1.4003417460 0.7145698133
C 0.5080812484 0.0050494310 -0.8771764471
H 0.8777652095 -0.1557949048 -1.8896747218
C -1.0219794196 -0.0387015951 -0.9545339178
H -1.3106775492 -1.0345572905 -1.2929168278
H -1.3361953648 0.6775311806 -1.7118329061
C -1.7180507374 0.2972999728 0.3573720848
H -1.4573449369 1.3079116948 0.6753170148
H -1.4375263115 -0.3846631332 1.1634430497
S -3.5254572580 0.2870429555 0.2376309090
C -3.7942340167 -1.4926274328 0.0861205286
H -4.8698030076 -1.6504045077 0.1014194491
H -3.3517532019 -2.0195092399 0.9297060548
H -3.3996157110 -1.8852177555 -0.8472846687
C 0.9532876059 1.4381992571 -0.5661299910
O 0.8985504610 2.2621739455 -1.4727948902
N 1.3944158388 1.7858842542 0.6738023229
H 1.6422291026 2.7630298640 0.7071060921
C 2.3109805177 -1.4537733463 0.0711747210
O 2.6677705438 -2.2234702538 0.9531459661
C 3.2523987986 -0.9014043664 -0.9690700436
H 4.2347274468 -1.3246616437 -0.7925347951
H 3.3079579853 0.1852577832 -0.9086203615
H 2.9198957951 -1.1594668075 -1.9735500651
C 1.4284324656 1.0530778431 1.9300275738
H 1.6292821679 1.7748422546 2.7173390611
H 0.4731720897 0.5856261690 2.1547939836
H 2.2069437467 0.2947451459 1.9577606381
