29
0 1
N 1.8784580021 0.1875758564 0.1672289542
H 2.1009149660 1.1447447269 0.3886113495
C 0.6646062165 -0.0541843747 -0.6010475680
H 0.9457832496 -0.4206686361 -1.5894362372
C -0.2179519563 -1.1335921820 0.0372216760
H -0.4146280506 -0.8984217094 1.0827443663
H 0.3650567357 -2.0541238363 0.0152641427
C -1.5260373098 -1.3263774648 -0.7240524643
H -1.3731979041 -1.1760674362 -1.7932679981
H -1.9125216956 -2.3361612617 -0.5862673619
S -2.8438254357 -0.1707664382 -0.2465759329
C -3.3168919149 -0.9549538175 1.3110022739
H -4.1121192770 -0.3546862261 1.7469263065
H -2.4837255013 -0.9909441203 2.0107666479
H -3.6902667395 -1.9621583620 1.1360790754
C -0.0585734670 1.2590375630 -0.8717473339
O -0.4417598015 1.5259781315 -2.0021812743
N -0.1660932901 2.1622910893 0.1582065566
H -0.7011248535 2.9640810224 -0.1476197733
C 2.9084531384 -0.7111790036 0.1213060789
O 2.7904032169 -1.8150224804 -0.3925707727
C 4.1961203563 -0.2457480151 0.7578057748
H 4.9334877165 -0.0897168107 -0.0273269774
H 4.5663044582 -1.0339178624 1.4074171115
H 4.0823897982 0.6726135979 1.3287170636
C -0.3399619306 1.8138589623 1.5609463794
H -1.3448575733 1.4410435832 1.7631088284
H 0.3801327355 1.0560694082 1.8516824573
H -0.1593578892 2.7004040962 2.1643386510
