29
0 1
N -0.8520156125 0.9059615547 0.1648977036
H -0.3330044184 1.1735825064 0.9827665986
C -0.4667074378 -0.2773222716 -0.5717914438
H -0.3353199820 -0.0107076109 -1.6213725950
C 0.8453554876 -0.8311931687 -0.0212138238
H 1.0324299373 -1.7925687451 -0.4985790049
H 0.7461937937 -1.0161579288 1.0522956851
C 2.0175817238 0.1035523792 -0.2845704134
H 1.8239055587 1.1040598562 0.1053349109
H 2.1865153972 0.1865953356 -1.3593198932
S 3.5049366199 -0.5570435747 0.5098772068
C 4.6710855693 0.7137791276 -0.0241867651
H 5.6424107392 0.4568075629 0.3906046995
H 4.3754424725 1.6923316904 0.3482965118
H 4.7450350669 0.7375233916 -1.1091590252
C -1.5031652876 -1.4008107894 -0.6334472992
O -1.5427124654 -2.0990828759 -1.6370698427
N -2.2958201202 -1.6596830903 0.4414420896
H -2.9446464110 -2.4081103525 0.2561067274
C -1.9209614966 1.6562562347 -0.2253998246
O -2.6037900093 1.3453738209 -1.1908151574
C -2.2003344074 2.8811546938 0.6125299400
H -2.1316780463 3.7584391768 -0.0265111442
H -1.5187549798 2.9968036674 1.4521288190
H -3.2215027372 2.8241965506 0.9820306466
C -2.3823795206 -1.0014047985 1.7268468459
H -2.8863754640 -1.6774885081 2.4133498529
H -1.3967460180 -0.7987575380 2.1366537574
H -2.9468029520 -0.0698702962 1.6874322375
