29
0 1
N -1.4141875919 -0.6659969480 -0.7887565720
H -1.7523075899 -0.3589753377 -1.6883988193
C -0.1682103334 -0.1237760356 -0.2968097088
H 0.3933807146 -0.9043036344 0.2170254057
C 0.6855366528 0.3468274242 -1.4736474762
H 0.2339986381 1.2312779987 -1.9326138079
H 0.6795433856 -0.4491583425 -2.2213076605
C 2.1258913219 0.6614083464 -1.0849097200
H 2.6405457862 1.1076063275 -1.9340514149
H 2.1646700913 1.3685351353 -0.2572583716
S 3.0415765073 -0.8325122013 -0.5860768434
C 3.4145392061 -0.4242315125 1.1385880630
H 3.8657486411 -1.3118820368 1.5759380521
H 2.5036852340 -0.1672930274 1.6725505298
H 4.1264346667 0.3956670579 1.1929958424
C -0.3118200611 0.9954749107 0.7328169296
O 0.4732854464 1.0547730470 1.6780271313
N -1.2916862687 1.9234312718 0.5796965935
H -1.2886329282 2.6030247517 1.3244088263
C -2.3789503844 -1.2618072294 -0.0175232700
O -3.5095641710 -1.4402686627 -0.4504388748
C -1.9451549923 -1.6915658887 1.3609793730
H -1.6743501673 -0.8339662525 1.9759591987
H -1.0736594289 -2.3425395448 1.3070583030
H -2.7704193628 -2.2209342389 1.8236425553
C -2.2786234201 2.0848917641 -0.4740946864
H -1.8243940667 2.0184206432 -1.4599022745
H -3.0878426662 1.3604466156 -0.4067062164
H -2.6983708592 3.0827905989 -0.3794580869
