32
0 1
N 0.5335924558 0.7640002288 -0.2282158053
C 0.8143877983 -0.6366013332 0.0490488507
C 2.2721391089 -0.9693903485 -0.3003807099
O 2.5742030449 -1.6367598078 -1.2842779562
C -0.1442633905 -1.5220396710 -0.7394319834
C -1.5737534642 -1.1296258955 -0.5013069898
C -2.3161644790 -0.4902206480 -1.4975227797
C -2.1759429767 -1.3481589206 0.7419946061
C -3.6257768330 -0.0732107076 -1.2612134240
C -3.4829269594 -0.9357190483 0.9841558112
C -4.2107412561 -0.2928636545 -0.0169847804
H -0.0426978929 0.9825581092 -1.0241637066
H 0.6702430354 -0.7778886443 1.1224838479
H 0.0362393214 -2.5558656234 -0.4449113303
H 0.1102623379 -1.4542329467 -1.7972884437
H -1.8695096084 -0.3357502090 -2.4731142880
H -1.6171445494 -1.8486816478 1.5237756588
H -4.1864526628 0.4155089600 -2.0465397178
H -3.9341123719 -1.1163243034 1.9504087510
H -5.2264174487 0.0270850555 0.1703584197
N 3.1584625279 -0.4552799167 0.5799493833
H 2.7902915076 0.1980139711 1.2624867758
C 4.5832137402 -0.5581206938 0.3521952317
H 5.1037461601 -0.5809950950 1.3056067888
H 4.7778699067 -1.4783924474 -0.1898273563
H 4.9632674607 0.2752894636 -0.2396170988
C 0.7851925681 1.7386656163 0.6779979445
O 1.4068408397 1.5232948770 1.7196195512
C 0.2547770112 3.1066773177 0.3356131648
H -0.4716225463 3.3904734986 1.0939472158
H -0.2152678400 3.1507417542 -0.6435534847
H 1.0741224547 3.8197487102 0.3777608535
