32
0 1
N 0.7423046053 0.8110715639 -0.3192948775
C 0.9835120519 -0.5009011977 0.2551045652
C 2.4104317782 -1.0073918118 0.0723661139
O 2.6895280650 -2.1794745882 0.2966928173
C -0.0185556851 -1.5315749823 -0.2868818807
C -1.4178240909 -0.9932763188 -0.2034684402
C -2.1187085671 -0.6420247685 -1.3601448653
C -2.0156649904 -0.7517165595 1.0377952340
C -3.3851854330 -0.0631317089 -1.2856428635
C -3.2776440958 -0.1704700248 1.1192417254
C -3.9653896020 0.1790556602 -0.0427971358
H 0.4712683070 0.8141767249 -1.2921663616
H 0.8322729608 -0.3773820664 1.3289206235
H 0.1050773181 -2.4531188997 0.2794290934
H 0.2303485591 -1.7607391698 -1.3260523873
H -1.6718850946 -0.8348893838 -2.3286000270
H -1.4841312111 -1.0068460614 1.9461848270
H -3.9145594297 0.1958736435 -2.1928290381
H -3.7216319296 0.0138032135 2.0879803257
H -4.9459966728 0.6303810878 0.0211484432
N 3.3010610141 -0.0728290795 -0.3323527973
H 2.9544249086 0.8670124655 -0.4250954730
C 4.7120175909 -0.3620775431 -0.4548732965
H 5.0893118482 -0.0373498285 -1.4221609721
H 5.2875656978 0.1230598103 0.3322911914
H 4.8305485989 -1.4374954831 -0.3648484544
C 0.1176221260 1.7755540692 0.4535756656
O 0.1359146549 1.7485285231 1.6721323421
C -0.5921807211 2.8433204349 -0.3376095192
H -0.1092187361 3.0396932425 -1.2928199837
H -0.6394039867 3.7541161323 0.2500060646
H -1.6087088386 2.4951569043 -0.5279466591
