32
0 1
N 0.7751488940 0.7061301071 -0.3701445769
C 0.8861943803 -0.6232716849 0.2040878023
C 2.2386762052 -1.2895067242 -0.0260346907
O 2.3905613862 -2.4851657968 0.1960562588
C -0.2455795184 -1.5344844580 -0.2948653401
C -1.5705760206 -0.8400374961 -0.1652359260
C -2.2683748120 -0.4143070987 -1.2985280414
C -2.0917039036 -0.5286126655 1.0949011030
C -3.4572367451 0.3053135807 -1.1828182886
C -3.2755822502 0.1928501728 1.2173734216
C -3.9607302885 0.6153500895 0.0782656665
H 0.4711755130 0.7375526438 -1.3327252371
H 0.7889692667 -0.4805242176 1.2817611536
H -0.2071827924 -2.4626199484 0.2728718323
H -0.0621404195 -1.7932518480 -1.3406821241
H -1.8817575294 -0.6594080631 -2.2809761406
H -1.5600986412 -0.8402082124 1.9854591339
H -3.9862103308 0.6205240525 -2.0722762209
H -3.6603453248 0.4291008550 2.2000628238
H -4.8806621670 1.1756314352 0.1740927687
N 3.2145905703 -0.4635630327 -0.4685626638
H 2.9739994831 0.5094066586 -0.5551946718
C 4.5781059608 -0.9120074514 -0.6394374654
H 4.5766731617 -1.9937058914 -0.5466780041
H 4.9546465012 -0.6347285212 -1.6216673368
H 5.2332290623 -0.4937159989 0.1235095858
C 0.2926526304 1.7375191331 0.4180264827
O 0.3518744450 1.7117745380 1.6353079820
C -0.3192432499 2.8771331544 -0.3544955336
H 0.1480788987 3.0147488310 -1.3275901498
H -0.2413059599 3.7888970653 0.2283266472
H -1.3749814057 2.6465217923 -0.5061852504
