32
0 1
N -1.1731736408 -1.1456951542 0.0989945759
C -0.9693826516 -0.1243712171 1.0967635809
C -0.9826605745 1.3108352102 0.5606080028
O -0.9358705475 2.2583826439 1.3392744744
C 0.3728018395 -0.3532771504 1.8157466474
C 1.5241810907 -0.3291684500 0.8512470898
C 2.0363320709 -1.5165163196 0.3176771016
C 2.0671458386 0.8885939544 0.4221831716
C 3.0553087481 -1.4929833509 -0.6342360352
C 3.0868325673 0.9145952780 -0.5254005675
C 3.5791854341 -0.2754836258 -1.0611041651
H -0.3574578777 -1.5781294919 -0.3145240680
H -1.7609273534 -0.1720160427 1.8441392970
H 0.3276815633 -1.3144585134 2.3286727196
H 0.4752337981 0.4348551152 2.5600458035
H 1.6450349784 -2.4667802668 0.6628783424
H 1.6899293412 1.8132407184 0.8415473491
H 3.4401808469 -2.4210887035 -1.0342978692
H 3.5021908304 1.8624102541 -0.8405637341
H 4.3718256945 -0.2535325342 -1.7962148603
N -1.0288393655 1.4322353274 -0.7827366109
H -0.9695496805 0.5855613457 -1.3232765345
C -0.9087160452 2.7202538176 -1.4299099565
H 0.1239307154 2.9283970095 -1.7116573125
H -1.5345458925 2.7501669498 -2.3177170806
H -1.2367839697 3.4786548903 -0.7258827220
C -2.3713325185 -1.5638049288 -0.4228762441
O -2.4136274181 -2.3964167288 -1.3173529574
C -3.6069931251 -0.9390147443 0.1763099257
H -3.7091077843 -1.2193761689 1.2241494795
H -4.4677225507 -1.2999952901 -0.3752593083
H -3.5649943622 0.1480021671 0.1233284648
