35
0 1
N -2.3393721704 0.5398515396 -0.7493780424
H -3.3059761197 0.3799610330 -0.9795529576
C -1.4705286268 -0.6231302085 -0.9355497634
H -1.7419323875 -1.0627530474 -1.8964026850
C 0.0119871290 -0.2886015265 -0.9635709350
C -1.8102174101 -1.7442881585 0.0529285692
H 0.1811760514 0.4728926764 -1.7270524414
H 0.3071354085 0.1379389751 -0.0139096647
C 0.9035556759 -1.4887785223 -1.2304511068
O -2.2677490307 -2.8007010065 -0.3752965556
H 0.7526457313 -1.8773266192 -2.2400987611
H 0.6744340223 -2.2989634262 -0.5347212255
C 2.3610753764 -1.0720933511 -1.0477255577
H 2.5946551710 -0.2457839053 -1.7189312076
H 3.0231096340 -1.8996437875 -1.3061403087
N 2.6322444377 -0.6495469160 0.3259316382
H 3.1365010086 -1.3283504001 0.8772810142
C 3.1321263900 0.6116594326 0.6269198574
N 4.0438307802 0.7108061897 1.5267360937
N 2.5732156920 1.6423900476 -0.1256747686
H 4.2103886467 1.6890632844 1.7458747789
H 1.5694215917 1.6014799288 -0.2410016759
H 2.8629110884 2.5523358858 0.1952250888
N -1.6072047344 -1.5446806212 1.3793658734
C -0.9584233865 -0.4409435836 2.0634109905
H -1.8186839773 -2.3686342130 1.9215627121
H -1.3986863742 -0.3411549091 3.0529037168
H -1.1140852954 0.4913624413 1.5331948980
H 0.1154276164 -0.6009235724 2.1704927233
C -2.0266053251 1.8139096462 -0.3844028441
C -3.1945552708 2.7747903443 -0.4218655950
O -0.9102792614 2.1952112361 -0.0428059301
H -4.1520459661 2.2976691621 -0.6151096640
H -3.2361852054 3.2990168560 0.5291803655
H -3.0025949097 3.5138280952 -1.1969896299
