32
0 1
N -0.6168552975 0.7348466749 -0.8102955021
C -0.6238601261 -0.6068707387 -0.2441814724
C -2.0366503993 -1.1020539483 0.0876689023
O -2.2428871481 -1.8834126346 1.0079924235
C 0.3452040382 -0.7953885888 0.9289549658
C 1.7547588003 -0.5361800345 0.4835424803
C 2.5267626936 -1.5734429817 -0.0495001621
C 2.3008678267 0.7504315203 0.5264830314
C 3.8132919919 -1.3346059685 -0.5263719139
C 3.5874224599 0.9946004876 0.0496898369
C 4.3460522212 -0.0473391694 -0.4795003806
H 0.1049733943 0.9121429978 -1.4964698044
H -0.2822358364 -1.2620577112 -1.0507787932
H 0.2294174215 -1.8133883470 1.2973447151
H 0.0709366488 -0.1244145815 1.7432221401
H 2.1182516858 -2.5768175544 -0.0794221575
H 1.7193368598 1.5667023069 0.9369431901
H 4.3994603735 -2.1502308528 -0.9277329597
H 3.9944097039 1.9956829039 0.0925250800
H 5.3454504017 0.1405227352 -0.8471091515
N -2.9902633857 -0.6547625234 -0.7617458978
H -2.7096605560 0.0427300685 -1.4306955292
C -4.3804616440 -1.0283207058 -0.6241317890
H -4.9829515377 -0.1982355564 -0.2562179255
H -4.7823307033 -1.3624463379 -1.5779050199
H -4.4301841078 -1.8422633337 0.0923074836
C -0.9253338951 1.8944065891 -0.1222708812
O -0.5035467081 2.9734322912 -0.5096543850
C -1.8697279834 1.7912356003 1.0512768924
H -2.8841954099 1.9525683871 0.6872114171
H -1.6284164811 2.5951524687 1.7400643363
H -1.8477253016 0.8378415370 1.5695508300
