32
0 1
N -0.6350237609 0.8272822545 0.1479581951
C -0.6494581228 -0.4322044121 -0.5553141342
C -2.0066801400 -1.1246919970 -0.6443151395
O -2.2942833924 -1.7377164695 -1.6664011101
C 0.3383425905 -1.4077203426 0.1066034413
C 1.7246491562 -0.8338354822 0.1569912047
C 2.4897182842 -0.7338395961 -1.0092414243
C 2.2546737376 -0.3414606452 1.3523246586
C 3.7540550455 -0.1539478502 -0.9806607996
C 3.5202803273 0.2427158122 1.3854506662
C 4.2709287048 0.3393536316 0.2171910632
H 0.1174132732 0.9922631574 0.8031944039
H -0.3416212469 -0.3102706726 -1.5966505753
H 0.3181986993 -2.3283551185 -0.4773607392
H -0.0031250859 -1.6476853718 1.1150399578
H 2.0929122205 -1.1183642696 -1.9412700022
H 1.6785088556 -0.4292693141 2.2663394817
H 4.3362745310 -0.0875413038 -1.8895961563
H 3.9162157030 0.6186835214 2.3188582511
H 5.2526388723 0.7916731821 0.2388544474
N -2.8423603635 -1.0985408242 0.4282036579
H -3.6967140332 -1.6039815091 0.2519406594
C -2.6907821871 -0.4667227584 1.7265481882
H -3.4024159332 -0.9324202920 2.4039672134
H -1.6955366266 -0.6204095840 2.1315791782
H -2.8852306839 0.6042277463 1.6981221327
C -1.3023475296 1.9686489476 -0.2176002382
O -1.1112956660 3.0239143563 0.3705323901
C -2.3014914882 1.8257299366 -1.3383821561
H -1.8940052898 1.2801362852 -2.1876643463
H -2.6048339791 2.8200885455 -1.6466246593
H -3.1768534721 1.2777584363 -0.9901497100
