32
0 1
N -2.0086611690 -0.5408891954 -0.8272301983
C -0.7012927816 -0.4911479129 -0.2102450604
C -0.5247496024 0.6000312510 0.8486883430
O 0.0097498517 0.3270677475 1.9166464612
C 0.3664267781 -0.3697243601 -1.3068151520
C 1.7549021758 -0.3297704104 -0.7398334608
C 2.3891620005 0.8892018593 -0.4916345797
C 2.4151661629 -1.5144620227 -0.4063253137
C 3.6586076641 0.9254336440 0.0794189856
C 3.6842460767 -1.4832771296 0.1641438241
C 4.3082755736 -0.2615524782 0.4096103369
H -2.1221870725 -0.1243308340 -1.7393274943
H -0.5147877381 -1.4150616472 0.3378942693
H 0.1818672304 0.5308072920 -1.8961252434
H 0.2470284037 -1.2263014828 -1.9730616708
H 1.8824817455 1.8131624161 -0.7429385830
H 1.9326216362 -2.4655294616 -0.5980266540
H 4.1383724046 1.8764067484 0.2664273968
H 4.1849040967 -2.4082164109 0.4157909935
H 5.2940487617 -0.2354853050 0.8530292045
N -0.9401424112 1.8674669642 0.5669914759
H -0.8105209678 2.4877997411 1.3512759685
C -1.6993080542 2.3701666117 -0.5633448283
H -2.7368484655 2.0386623216 -0.5594496029
H -1.6825091224 3.4558311453 -0.5150818110
H -1.2428984013 2.0855429423 -1.5080751429
C -3.1976107735 -0.7391315056 -0.1697707989
O -4.2642783607 -0.4910244972 -0.7148627481
C -3.0927982499 -1.3036054847 1.2238179760
H -2.5662168832 -2.2571809644 1.2103773275
H -4.0972057377 -1.4479613612 1.6052735747
H -2.5395947712 -0.6393662204 1.8861942049
