32
0 1
N 0.5293654394 0.7177222394 -0.5132792867
C 0.7311189340 -0.5434589625 0.1839478417
C 2.1316770864 -1.0997028033 -0.1108648608
O 2.3116879425 -2.0675701781 -0.8426485032
C -0.3436178472 -1.5418222588 -0.2318914551
C -1.7202041741 -0.9668790394 -0.0628176857
C -2.2415073441 -0.7271107192 1.2126987767
C -2.4883760201 -0.6096632884 -1.1740183845
C -3.4945240818 -0.1430432245 1.3732280894
C -3.7441246613 -0.0228847220 -1.0203614697
C -4.2483023796 0.2145619155 0.2555536391
H -0.0881069689 0.7254288809 -1.3083138751
H 0.6581378108 -0.3256068315 1.2517575049
H -0.2145747228 -2.4420062112 0.3690547907
H -0.1648502216 -1.8341385399 -1.2667999868
H -1.6622795792 -1.0041039490 2.0854705468
H -2.1062503869 -0.8115354162 -2.1681857143
H -3.8836914696 0.0316031891 2.3671490812
H -4.3263139940 0.2420090405 -1.8926165198
H -5.2221424891 0.6676512707 0.3796849598
N 3.1152703900 -0.4166377073 0.5142986613
H 2.8459439227 0.4489102914 0.9687107614
C 4.5082542358 -0.7142882391 0.2625820402
H 4.9005959909 -0.1475492748 -0.5824799986
H 5.0957241450 -0.4827609658 1.1467470999
H 4.5967035902 -1.7720403288 0.0347314743
C 0.9158198892 1.9013775235 0.0197395185
O 1.5970004648 1.9700047243 1.0439919882
C 0.4585963802 3.1338088970 -0.7165202634
H 1.3268226905 3.7467001763 -0.9448251464
H -0.1872791500 3.7065645428 -0.0546571822
H -0.0791674222 2.9093379688 -1.6341664417
