35
0 1
N 2.5930511829 -0.2910162391 -0.7639254715
H 3.4492403735 0.1122793249 -1.1066794872
C 1.4083180138 0.5531609609 -0.9127541765
H 1.6002959000 1.1361684332 -1.8139074889
C 0.1277326400 -0.2300362817 -1.1648904067
C 1.4431477634 1.6492240460 0.1664486652
H 0.3285467096 -0.8952483358 -2.0100960291
H -0.1108971132 -0.8652946337 -0.3200119536
C -1.0319107147 0.6957260291 -1.5084878164
O 2.1803208151 2.6120179694 -0.0468540678
H -0.7741508859 1.2995231265 -2.3829383132
H -1.2348411104 1.3886340451 -0.6919053939
C -2.3121705753 -0.0751151129 -1.8185196512
H -2.1552695540 -0.7312611199 -2.6760816740
H -3.1106006881 0.6213735937 -2.0636538168
N -2.7911525633 -0.9035634405 -0.7240007004
H -2.2196673704 -1.7028026838 -0.4990788483
C -3.3608258405 -0.2964576819 0.3732745284
N -3.6189548559 0.9619463554 0.3707088261
N -3.5559007728 -1.1931648881 1.4295511947
H -4.1272001748 1.2137144392 1.2137902123
H -4.1712132372 -0.8315365386 2.1408452603
H -3.8504471122 -2.1102757843 1.1281899429
N 0.7374449286 1.5563618291 1.3175797319
C -0.1443423231 0.5187311672 1.8288523198
H 0.8842098704 2.3681603717 1.8977556877
H -1.1403383261 0.5787906960 1.3930489016
H -0.2373578930 0.6731217471 2.9009329581
H 0.2853950768 -0.4641712794 1.6684659974
C 2.7224766693 -1.3217091247 0.1161439093
C 4.1190019681 -1.8916773178 0.2162151697
O 1.7959907000 -1.7772490234 0.7784030946
H 4.0484928266 -2.9753909448 0.2275677208
H 4.7713149834 -1.5763315212 -0.5941618588
H 4.5518996896 -1.5756081829 1.1638320336
