26
0 1
N 0.9808223515 0.1214989960 -0.0726011450
C -0.0766024528 0.4596371519 0.8725289243
C -1.4688783586 -0.0351666023 0.4743401859
O -2.4271795819 0.1680362794 1.2099524219
C -0.0478269466 1.9920567858 0.8787182747
C 0.3354477249 2.3179428121 -0.5640714580
C 1.4043218774 1.2748396772 -0.8754129298
H 0.1221880622 0.0546154202 1.8631758973
H -1.0009638965 2.4045736449 1.1981545062
H 0.7322491711 2.3338964455 1.5594425548
H -0.5267043029 2.1813734734 -1.2171576064
H 0.7013102084 3.3338037698 -0.6913783858
H 1.4652850919 1.0073763430 -1.9284955261
H 2.3991051850 1.5958521573 -0.5602077010
N -1.5354379501 -0.6735874899 -0.7167572141
H -0.6729549513 -0.7756377517 -1.2254846172
C -2.7768024570 -1.1976230116 -1.2422951387
H -2.6951402400 -2.2646341538 -1.4391125191
H -3.5414286768 -1.0282595157 -0.4901384095
H -3.0619854925 -0.6877899303 -2.1608870318
C 1.7802417940 -0.9887835687 -0.0193660168
O 2.7682584022 -1.0902900488 -0.7373812048
C 1.3641609814 -2.0638669049 0.9565831360
H 1.9104213717 -2.9686266061 0.7122594456
H 0.2933287745 -2.2554016569 0.9255593920
H 1.6227943109 -1.7645027159 1.9724851651
