26
0 1
N 2.4869911492 1.1478913143 2.9050714423
C 3.7336076044 1.9244782625 2.7978375870
C 4.3807298182 2.0719927534 4.1845453291
O 4.2978665736 3.1023481310 4.8463246887
C 3.2874318040 3.2729342723 2.2261200488
C 1.8772181546 3.0256388595 1.6878651424
C 1.3265167593 2.0011174439 2.6722954913
H 4.4115244263 1.3774831519 2.1415917311
H 3.9758645329 3.6350590153 1.4669456672
H 3.2684450536 3.9910115011 3.0441968234
H 1.9127935184 2.5817135518 0.6926836292
H 1.2762286083 3.9312746807 1.6432112199
H 0.4926938678 1.4267047173 2.2812105422
H 1.0175742176 2.4839392492 3.6027048407
N 5.0289108916 0.9600817011 4.5906609409
H 4.8511331089 0.1201808321 4.0502974199
C 5.5777348812 0.8725984018 5.9262957000
H 6.3597493465 0.1190084321 5.9443541041
H 5.9971186982 1.8373189495 6.1951062222
H 4.8181153706 0.6149200798 6.6653457954
C 2.5166506829 -0.2063902950 2.9103656900
O 3.5813691399 -0.8333062000 2.9480164145
C 1.1876754230 -0.9210059866 2.8709729756
H 1.3740991719 -1.9750114730 3.0444223962
H 0.5034232837 -0.5394544491 3.6258840889
H 0.7158319133 -0.8023238971 1.8959720691
