26
0 1
N 0.9603337037 -0.0472639240 -0.1674400487
C -0.0148043219 0.6099649651 0.6993381758
C -1.4667718957 0.2205244532 0.4613505188
O -2.3189378100 0.4597298426 1.3075377600
C 0.1738487548 2.1022508170 0.3721938918
C 1.6316630384 2.1851846049 -0.0706921755
C 1.7948191509 0.9149008823 -0.8948949445
H 0.1924442718 0.4235967672 1.7541441267
H -0.4807438952 2.3724044249 -0.4582446353
H -0.0783281464 2.7302641610 1.2219755296
H 2.2920911229 2.1463572664 0.7959934834
H 1.8539811629 3.0877589751 -0.6356539146
H 1.4274860060 1.0550382459 -1.9144052804
H 2.8099207244 0.5315013728 -0.9502627905
N -1.7167442784 -0.3215084118 -0.7541925642
H -0.9197961149 -0.5125683317 -1.3387385867
C -3.0501399496 -0.6899050023 -1.1759011366
H -3.1114639328 -1.7545672052 -1.3936383276
H -3.7229931732 -0.4534129675 -0.3571963380
H -3.3515877033 -0.1289733025 -2.0586536331
C 1.3954743489 -1.3408093460 -0.0055306562
O 2.3329376440 -1.7863412769 -0.6561010475
C 0.6444546758 -2.1674579706 1.0102941392
H -0.4255871511 -2.1750381096 0.8117941492
H 1.0322497477 -3.1793309559 0.9703793208
H 0.7899230202 -1.7673209743 2.0134849842
