35
0 1
N 2.3106164802 0.1071214996 0.2880976664
H 2.6620862706 0.9956574790 0.6057464653
C 1.2527287075 0.1169709089 -0.7154355983
H 1.6597117800 -0.2544115447 -1.6563799905
C 0.0722790009 -0.7782786701 -0.3286178162
C 0.8128882832 1.5443747163 -1.0145097935
H 0.4527013821 -1.7985559872 -0.2618560259
H -0.2921602323 -0.4926872506 0.6571647370
C -1.0571909168 -0.6910097875 -1.3466981139
O 0.7947976051 1.9561956772 -2.1679070874
H -0.6745134001 -0.9065394614 -2.3471053168
H -1.4604343049 0.3219455635 -1.3765487214
C -2.1932320431 -1.6600160186 -1.0351668143
H -1.8498792064 -2.6898930818 -1.1347127796
H -2.9994689633 -1.5301695809 -1.7564975975
N -2.7321439837 -1.5359487305 0.3215758886
H -2.1618585504 -2.0036907181 1.0097362308
C -3.1590632172 -0.2993301278 0.7869592701
N -2.9799904979 0.1896450344 1.9639299970
N -3.8393907112 0.4490638238 -0.1622946521
H -2.3750689305 -0.4250915799 2.5032742111
H -4.4453490277 -0.0882475402 -0.7620585747
H -4.3127736072 1.2276518194 0.2693459618
N 0.4761119454 2.3541327889 0.0339167992
C 0.0818117384 1.9809322695 1.3852215807
H 0.1485725688 3.2512707129 -0.2944741945
H -0.9698295003 1.6993576029 1.4541993398
H 0.2607052160 2.8300970299 2.0412002613
H 0.6893919210 1.1540038485 1.7368978671
C 3.1407967115 -0.9743735883 0.3966577159
C 4.3363953091 -0.7792764386 1.2982035114
O 2.9234875922 -2.0265038275 -0.1884336951
H 4.2846555116 0.1348499554 1.8846808337
H 4.4110549601 -1.6340734565 1.9645407534
H 5.2340501097 -0.7591823402 0.6831996811
