23
0 1
N 1.2988345865 0.6520097829 -0.5363714042
C 0.0173539919 0.6594927309 0.1205972755
C -0.7545779525 -0.6507325315 -0.1414778435
O -0.1691270142 -1.6485257254 -0.5433487597
C -0.7211300255 1.9264790278 -0.2976751203
O -1.8222092435 2.1257968252 0.5898359478
H 1.2745359442 0.7048763019 -1.5462404075
H 0.1757497576 0.7313144170 1.1972792666
H -0.0168975092 2.7558412204 -0.2333570960
H -1.0646899857 1.8338377259 -1.3324065104
H -2.2750238587 2.9312805987 0.3239634405
N -2.0770611134 -0.6012482237 0.1358504520
H -2.4485975944 0.2757312397 0.4683054738
C -2.9295532497 -1.7632014021 0.0043791943
H -3.3068826263 -2.0859791332 0.9734366413
H -3.7725807383 -1.5516647714 -0.6502639170
H -2.3334537022 -2.5608813836 -0.4268168900
C 2.3809742147 -0.1001183909 -0.1183602508
O 3.3025409982 -0.3374936340 -0.8797341019
C 2.3751337410 -0.5421912481 1.3227169853
H 2.1986631874 0.2930871042 1.9986110941
H 3.3411383861 -0.9843901075 1.5385876103
H 1.5955558058 -1.2865264230 1.4758629200
