23
0 1
N 1.0631276363 0.5775899915 -0.0802571470
C -0.1470460202 0.6777159404 0.7146817415
C -1.2650783038 -0.1678781201 0.0940513471
O -2.2178283786 0.3492692764 -0.4966525791
C -0.5624212991 2.1384357038 0.7657583676
O -0.7003042775 2.6612826876 -0.5440416274
H 1.1833866462 1.2788838239 -0.7944770962
H 0.0771530625 0.3004935903 1.7134807526
H -1.4886078675 2.2300048998 1.3357225518
H 0.2134501456 2.7192527606 1.2611464810
H -1.4327276433 2.1453113413 -0.9167954104
N -1.0928386681 -1.4925069328 0.2497724247
H -0.2058704682 -1.7849182147 0.6468881612
C -1.9819980670 -2.4577102465 -0.3609136515
H -1.5519507798 -2.8773385423 -1.2697974680
H -2.1906598814 -3.2642475869 0.3370624813
H -2.9066354364 -1.9489970166 -0.6138131222
C 1.9234648903 -0.4586992166 0.0346053276
O 1.7239430475 -1.3966753145 0.8102096965
C 3.1564828029 -0.3879431203 -0.8277798023
H 4.0258101279 -0.3103303222 -0.1784994740
H 3.1481707817 0.4537170405 -1.5152219543
H 3.2438909500 -1.3158194229 -1.3869140008
