23
0 1
N 0.9331750890 0.3883854711 -0.7441321254
C -0.1254840874 0.6901864683 0.1935065005
C -0.7346864437 -0.5543859792 0.8579652022
O -0.5418752127 -0.7435699033 2.0539270736
C -1.1305770664 1.6068543294 -0.4929186944
O -2.3145834803 1.6008452943 0.2849422736
H 0.6867670775 0.2023417228 -1.7050185444
H 0.2967834442 1.2291524165 1.0382324808
H -0.6888812833 2.6030058974 -0.5607500834
H -1.3235001066 1.2601643533 -1.5116279480
H -2.8680478283 2.3315508038 -0.0033991713
N -1.3959624350 -1.4644143942 0.0957441610
H -1.7575449533 -2.2292389939 0.6436122309
C -1.8966714292 -1.3078199462 -1.2523009502
H -1.0989062302 -1.0456639437 -1.9431607539
H -2.2945447917 -2.2650075182 -1.5768944276
H -2.6911708719 -0.5647988036 -1.3147398744
C 2.2076162454 -0.0302797707 -0.4297393088
O 2.9504628630 -0.4538908687 -1.3015973054
C 2.6181745257 0.1108096096 1.0128967214
H 2.6149570330 1.1616040362 1.3023246815
H 3.6224377557 -0.2842727534 1.1144954296
H 1.9350081864 -0.4157035274 1.6768964323
