23
0 1
N -1.0446034433 -0.8131537951 -0.5101524646
C 0.2728011642 -0.8494608218 0.1017157490
C 1.1494263231 0.3160491697 -0.3752743435
O 2.1639320085 0.1275752966 -1.0517511154
C 0.9343698783 -2.1789399446 -0.2364322516
O 2.2223243301 -2.2763541763 0.3183047107
H -1.1997138070 -1.3689894186 -1.3345289021
H 0.1399084432 -0.7647323032 1.1807642228
H 0.3354881186 -2.9876075944 0.1795168762
H 0.9576562839 -2.2920097556 -1.3266364933
H 2.7255852930 -1.5821933571 -0.1312487260
N 0.7073019943 1.5238186919 0.0164122471
H -0.1639602440 1.5427595453 0.5354801069
C 1.3728726538 2.7507722008 -0.3642388815
H 0.7848167582 3.3118490046 -1.0891731565
H 1.5435301454 3.3738900953 0.5104743186
H 2.3261281263 2.4873284846 -0.8112163804
C -2.0551842724 -0.0420927966 -0.0395758356
O -1.9037080387 0.7320299350 0.9055464035
C -3.3813906086 -0.1954655953 -0.7376919727
H -4.1119215780 -0.5439619056 -0.0113244073
H -3.3500159392 -0.8889974489 -1.5740335881
H -3.7049325896 0.7812654895 -1.0882911160
