23
0 1
N 1.0307284706 -0.1560525805 -0.4581846296
C -0.0654679849 0.6088505506 0.0976435853
C -1.3873852614 -0.1535849204 0.0722103661
O -2.4666319947 0.4414258125 0.1047493670
C -0.2091950728 1.9581986576 -0.6119203445
O -1.1256415831 2.8073726930 0.0293295440
H 1.0778907876 -0.2376265669 -1.4614653206
H 0.1874236024 0.7920832994 1.1431811506
H 0.7618306870 2.4515252075 -0.5993986705
H -0.4837170347 1.7778561562 -1.6605487398
H -1.9288623252 2.2696862577 0.1192574003
N -1.2803646182 -1.4961367914 0.0293088930
H -0.3487594942 -1.8753137319 0.0237942197
C -2.4322746033 -2.3692762988 0.0971208629
H -2.4090277593 -3.0962281822 -0.7113510956
H -2.4718012941 -2.8948374511 1.0496366381
H -3.3174972795 -1.7492749534 -0.0013956111
C 2.2006113937 -0.3445601801 0.2441204909
O 2.2986741674 -0.0943091620 1.4334055744
C 3.3449654532 -0.8954563837 -0.5713806574
H 4.0265514362 -0.0792725596 -0.8054736602
H 3.0205390735 -1.3587025326 -1.5003377596
H 3.8857582340 -1.6191483398 0.0305943965
