23
0 1
N 1.0475205305 -0.7623387988 0.3560017138
C -0.2542661964 -0.7803079147 -0.2898911997
C -1.1049963906 0.4252026736 0.1266964493
O -2.1379637460 0.2984311742 0.7904590929
C -0.9651473350 -2.0767683232 0.0755849444
O -2.2443374271 -2.1503965846 -0.5026968744
H 1.1628411998 -1.2908575365 1.2045544119
H -0.0907724807 -0.7358016195 -1.3670256783
H -0.3846799655 -2.9172511412 -0.3014970524
H -1.0140554802 -2.1536727889 1.1681559736
H -2.7339067536 -1.4273536695 -0.0845406038
N -0.6326684234 1.6086025584 -0.2961160571
H 0.2584499607 1.6063220527 -0.7793320619
C -1.2972921866 2.8450662254 0.0574667552
H -0.9298922772 3.6377647277 -0.5866466899
H -2.3692771112 2.7326268361 -0.0801793551
H -1.1164498979 3.1154305997 1.0973738809
C 2.0876262390 -0.0237820046 -0.1023861993
O 1.9815564349 0.7276927408 -1.0716053164
C 3.3895484444 -0.1886375726 0.6376187572
H 3.7377856191 0.7919474203 0.9515506178
H 4.1256994606 -0.5949676238 -0.0523208055
H 3.3133387824 -0.8417094309 1.5031602967
