23
0 1
N 1.0759533795 0.5243640164 -0.3169630947
C -0.0043451137 0.7229110175 0.6162561308
C -1.1635475724 -0.2764523108 0.5054025374
O -2.0764108884 -0.2390382341 1.3223632588
C -0.5632293204 2.1219412096 0.4328909918
O -0.9252229991 2.2256387196 -0.9410771973
H 1.0450464638 1.0549274344 -1.1761693062
H 0.3568349594 0.6439545468 1.6411986502
H -1.4255710416 2.2357593273 1.0892357906
H 0.2037622658 2.8550995149 0.6927278120
H -1.3123754482 3.0929375359 -1.0859575423
N -1.0757181200 -1.1638854519 -0.5070810057
H -0.3338090710 -1.0278621641 -1.1725240436
C -2.1361388257 -2.1100034904 -0.7776755493
H -1.7150526257 -3.0583833161 -1.1004734799
H -2.6946271051 -2.2530639023 0.1420960151
H -2.8172162002 -1.7405191628 -1.5436970969
C 2.1228397458 -0.3515513597 -0.1942596082
O 2.9552458594 -0.4731737966 -1.0813739205
C 2.1750475007 -1.1392475283 1.0922002777
H 1.2406396204 -1.6696629917 1.2699191317
H 2.3524840446 -0.4781629503 1.9399594240
H 2.9910284921 -1.8491546634 1.0185448244
