23
0 1
N 1.1176505040 -0.4572494832 -0.3351136210
C -0.0044265349 0.2640448004 0.2172966130
C -1.2597909544 -0.4750804698 -0.2426726823
O -1.1961809949 -1.4725928931 -0.9551933279
C 0.0046057766 1.7078691137 -0.2803562431
O -0.1928981658 1.7706068818 -1.6798023434
H 0.8572505562 -1.2734936925 -0.8735952659
H 0.0563252418 0.2669204329 1.3091694547
H -0.8063698807 2.2791892979 0.1702704569
H 0.9478356971 2.1632518742 0.0253575550
H 0.4984375477 1.2250360146 -2.0721011370
N -2.4269837678 0.0333186223 0.2049147389
H -2.4146583539 0.9190822005 0.6773406683
C -3.6926848046 -0.5007433907 -0.2574702667
H -4.4795014215 -0.1863036661 0.4213357635
H -3.9271141513 -0.1625831141 -1.2661214683
H -3.6338387666 -1.5845504915 -0.2643930282
C 2.3465188284 -0.3732375354 0.2539684957
O 2.5924714969 0.4415609635 1.1345411573
C 3.3765017152 -1.3465260937 -0.2638383688
H 3.0605387426 -1.8537537416 -1.1717280962
H 3.5710286527 -2.0875399598 0.5092521257
H 4.3025360374 -0.8090366704 -0.4473421800
