23
0 1
N 0.9587011443 -0.0696391870 0.8967152057
C -0.1218573818 0.8747745117 0.6259932821
C -1.5028482205 0.2401892358 0.4495814309
O -2.4739180575 0.6715613253 1.0640292610
C 0.1831268773 1.7973507843 -0.5583119535
O 1.4191855583 2.4685041880 -0.3979909927
H 1.3213478317 -0.0796955670 1.8334943031
H -0.2033371976 1.4958770343 1.5143266555
H 0.1495038676 1.2399866896 -1.4924519845
H -0.5926814625 2.5604426779 -0.5786090636
H 2.1094100335 1.8454335492 -0.6419147712
N -1.5685913133 -0.7674910956 -0.4442688432
H -0.7306800685 -1.0050193141 -0.9614488883
C -2.8373405635 -1.4033905541 -0.7289482631
H -2.6583643278 -2.2833798444 -1.3389348691
H -3.3220545521 -1.6977468538 0.1987983717
H -3.5102626419 -0.7295510603 -1.2579163276
C 1.5365927195 -0.9045441183 0.0041174192
O 1.1629247129 -1.0002863594 -1.1676426507
C 2.6830162752 -1.7324006687 0.5292325697
H 2.9370856410 -1.5174061820 1.5638213960
H 3.5520378188 -1.5558093271 -0.0998095844
H 2.4179373068 -2.7829368644 0.4349182971
