23
0 1
N -1.0270722563 -0.2251643723 -0.6900562141
C 0.0145122966 0.7751268042 -0.9076033112
C 1.4464992248 0.2432520937 -0.8209798785
O 2.2619232800 0.4919411640 -1.7040610144
C -0.1430044872 1.9987668297 0.0004886715
O -1.4324647886 2.5726827123 -0.1086210918
H -1.5464860835 -0.5151397652 -1.4995571018
H -0.1049820887 1.1101783910 -1.9347380226
H 0.0931099656 1.7399883874 1.0308683042
H 0.5682855044 2.7472895720 -0.3435775529
H -2.0233335909 2.0369570991 0.4280321916
N 1.7389547349 -0.4572026007 0.2937199940
H 1.0234719185 -0.5469107677 1.0050760973
C 3.0797373518 -0.9605755400 0.5036252986
H 3.0731258401 -1.6261233361 1.3612378750
H 3.4140691416 -1.5056677705 -0.3758093293
H 3.7854693765 -0.1502073640 0.6823242256
C -1.3791583921 -0.7716655536 0.4953212905
O -0.8003086069 -0.5138061413 1.5537441017
C -2.5381964171 -1.7361442449 0.4529730479
H -3.2938347664 -1.3979293667 1.1577375317
H -2.1868289121 -2.7084977214 0.7904068637
H -2.9842422450 -1.8375655089 -0.5328799765
