35
0 1
N -2.2843279538 0.9908757193 0.1731082765
H -3.1926254431 0.6940052096 0.4922779706
C -1.4775088940 0.0103916793 -0.5441029906
H -1.4700655025 0.2399338912 -1.6104210088
C -0.0326847604 0.0069704494 -0.0297084730
C -2.0809128152 -1.3750630929 -0.3884496263
H 0.3026683311 1.0426642668 -0.0446462466
H -0.0264842212 -0.3343530970 1.0099788447
C 0.8814535992 -0.8700170871 -0.8766618123
O -2.1331863676 -2.1768517284 -1.3103896487
H 0.9724350948 -0.4372546215 -1.8745563245
H 0.4406588009 -1.8610166538 -0.9951191191
C 2.2673068897 -1.0304647388 -0.2738171376
H 2.8516636532 -1.7045823700 -0.8962524526
H 2.1855554547 -1.4998044115 0.7150624854
N 2.9501249096 0.2579782630 -0.2002584491
H 2.4007256036 0.9658909496 0.2684272047
C 4.2371175140 0.3146544694 0.3223044619
N 4.5289069487 1.2228068179 1.1795307025
N 5.0780120013 -0.6843255593 -0.1661698659
H 5.5274287320 1.2152752927 1.3714884175
H 4.9253323478 -0.9017829551 -1.1391252370
H 6.0508297772 -0.5090842764 0.0271556422
N -2.5424578740 -1.6601523340 0.8642488890
C -2.9811969251 -3.0047173200 1.1857088279
H -2.2609328930 -1.0507556389 1.6142146943
H -2.1424737820 -3.6917094620 1.2984928916
H -3.6077792046 -3.3673985439 0.3771215910
H -3.5557678099 -2.9821072552 2.1068470884
C -2.1335357781 2.3276156210 -0.0968780604
C -3.1819116815 3.2255004469 0.5149077754
O -1.2155243168 2.7572960289 -0.7792355053
H -3.8415520215 3.5784302619 -0.2758378739
H -3.7748387996 2.7275515751 1.2781826984
H -2.6871546137 4.0912862036 0.9452653697
