26
0 1
N 0.9998790771 -0.2089810036 -0.4387581802
C 0.1261792388 0.4743738235 0.4803112856
C -1.3216040041 -0.0309628212 0.5053899412
O -2.1161705242 0.4414533685 1.3105137984
C 0.1090811683 1.9643605409 0.1482014429
O -0.2474211051 2.0224020607 -1.2359466360
C 1.4432304938 2.6344342278 0.4078308035
H 1.0913664229 0.1885714456 -1.3633553744
H 0.4920017415 0.3701031623 1.5012544756
H -0.6740612702 2.4125951521 0.7620588786
H -0.2706589676 2.9480886351 -1.4963405066
H 1.4017473509 3.6840697693 0.1167648744
H 2.2355447025 2.1499572534 -0.1592879337
H 1.6914133965 2.5931997891 1.4678289603
N -1.6143782090 -1.0093579623 -0.3766508570
H -0.9064929904 -1.2435016681 -1.0518156232
C -2.9586338802 -1.5249587853 -0.5167076695
H -2.9300807125 -2.5967096421 -0.6945122205
H -3.4880426552 -1.3229071629 0.4091881281
H -3.4907934483 -1.0398253430 -1.3344111133
C 1.7031076792 -1.3630075172 -0.2130005100
O 2.3846066016 -1.8726065230 -1.0910785790
C 1.5768637517 -1.9519373629 1.1710920626
H 0.5331463697 -2.1065287965 1.4413058682
H 2.0212387529 -1.2891301945 1.9130913507
H 2.1024820194 -2.9000284457 1.1818863336
