26
0 1
N -0.8847356336 -0.3568481820 -0.8664076496
C 0.4070454042 0.2872398766 -0.6834154201
C 1.5221525077 -0.7529996690 -0.5168948250
O 2.5171547662 -0.6885700417 -1.2305109149
C 0.5078672762 1.3888944504 0.3680096211
O -0.2645958700 2.4736098052 -0.1427261082
C 1.9520588962 1.8107591850 0.5782961533
H -0.9033634371 -0.9989567358 -1.6477986692
H 0.6680812014 0.7817846721 -1.6206727123
H 0.0949283402 1.0509065471 1.3212441018
H -0.0527331297 3.2519436474 0.3833233510
H 1.9786094679 2.6808205144 1.2353308516
H 2.4187110064 2.0691890750 -0.3697885980
H 2.5347744176 1.0211077099 1.0480629328
N 1.3894382351 -1.7209090258 0.4278667183
H 2.1510797431 -2.3810340766 0.4076143928
C 0.2827004199 -1.9921752148 1.3243494902
H -0.5518255449 -2.4848271155 0.8279769634
H 0.6480481656 -2.6358646946 2.1204180052
H -0.0760134339 -1.0786614924 1.7875335771
C -2.0973313092 -0.3987400767 -0.2214623751
O -2.9495831304 -1.1832171463 -0.6241553161
C -2.3739607603 0.5070424411 0.9498793922
H -3.4452844050 0.4799053359 1.1179795162
H -2.0436067321 1.5226808147 0.7602514469
H -1.8825634615 0.1333013963 1.8471880745
