35
0 1
N -2.1540783841 1.0706826511 0.2401292737
H -3.1140169844 0.8777214757 0.4792335210
C -1.4367088551 0.0422733249 -0.5042589279
H -1.3599999034 0.3281710478 -1.5543362283
C -0.0233391875 -0.1543622189 0.0563873609
C -2.1885085205 -1.2753855664 -0.4535721110
H 0.4139613424 0.8299610108 0.2018208622
H -0.0866950027 -0.6337425661 1.0377032402
C 0.8521362208 -0.9827337071 -0.8740476955
O -2.2303424253 -2.0409843604 -1.4064749824
H 0.9099522196 -0.4861358489 -1.8470443368
H 0.4024767665 -1.9592640429 -1.0566419365
C 2.2574023986 -1.1809473990 -0.3305175424
H 2.8313965233 -1.8252927080 -1.0021269357
H 2.1973469051 -1.6915935105 0.6315359700
N 2.9022825722 0.1160109154 -0.1482001730
H 2.6621461031 0.7786694947 -0.8720909764
C 4.2436481362 0.2030805635 0.2031058866
N 5.0776692804 1.1127265988 -0.1465904223
N 4.6704093345 -0.8358910713 1.0253190419
H 4.6529857994 1.7303439554 -0.8332511511
H 4.0110643846 -1.0867751996 1.7454203917
H 5.5787982141 -0.6175689785 1.4060330734
N -2.7896099784 -1.5504758378 0.7410049367
C -3.3798054027 -2.8559543227 0.9677149062
H -2.5127783985 -1.0002192699 1.5371221224
H -3.9758441331 -3.1234680315 0.1010450345
H -4.0178289239 -2.8113728038 1.8452105910
H -2.6225944715 -3.6273057256 1.1083821741
C -1.8294447137 2.3905516243 0.0440569652
C -2.7828009638 3.3832278275 0.6637696151
O -0.8363691720 2.7333620475 -0.5803834500
H -3.3355886929 3.8781483540 -0.1325733718
H -3.4849286415 2.9232354878 1.3546687123
H -2.2037594459 4.1404277898 1.1846075619
