26
0 1
N -1.0891401221 -0.6142369638 -0.1908351249
C 0.0978362251 0.2065314408 -0.3316291595
C 1.2661593698 -0.7306979761 -0.0669140748
O 1.1685252690 -1.6433686533 0.7496325336
C 0.0922640329 1.4031063076 0.6443599210
O -0.7669885585 2.4190651672 0.1706943517
C 1.4527029316 2.0429657520 0.8380238671
H -0.9471413002 -1.4752458962 0.3169457400
H 0.1377438656 0.6109439882 -1.3462269003
H -0.2564646370 1.0063680193 1.6059936219
H -1.4874952690 1.9953244809 -0.3315625350
H 1.3239560954 2.9281372993 1.4569117047
H 1.8630273164 2.3674338907 -0.1183332811
H 2.1555161585 1.3717079997 1.3277826336
N 2.3848212061 -0.4790295577 -0.7802812313
H 2.3850303127 0.3183016161 -1.3914229475
C 3.6212588065 -1.1945962529 -0.5435479055
H 3.3718351873 -2.1314019992 -0.0562868505
H 4.1192864346 -1.3981160971 -1.4875043904
H 4.2938764536 -0.6312483864 0.1026345572
C -2.3046904949 -0.2747520957 -0.6675352472
O -2.5267040884 0.8092571817 -1.2130628131
C -3.3814645783 -1.3166432431 -0.5133446592
H -4.2529858849 -0.8503422264 -0.0620990007
H -3.0688370366 -2.1676337025 0.0855788812
H -3.6678146952 -1.6627850931 -1.5042656910
