26
0 1
N -0.8581732150 -0.6600023133 -0.6355796058
C 0.2596854773 -0.6727118089 0.2782013318
C 0.5825928448 0.6646560322 0.9566351764
O 0.9397812385 0.6660021473 2.1271859979
C 1.4744776896 -1.3035405421 -0.4142042824
O 2.4317478724 -1.5076820413 0.6099298040
C 2.0605922220 -0.4836653911 -1.5505071153
H -0.6832295071 -0.5303182239 -1.6202443278
H 0.0341225068 -1.3303830919 1.1165351645
H 1.1196116037 -2.2626323303 -0.8095382735
H 3.2365758628 -1.8308179337 0.1931535588
H 2.9274867078 -1.0023993409 -1.9608607017
H 2.3807184623 0.4925375135 -1.1906817451
H 1.3568641246 -0.3551477074 -2.3726387115
N 0.4759567746 1.8359293411 0.2589594933
H 0.6634689913 2.6233008127 0.8609811875
C -0.1176542758 2.1346765605 -1.0334329587
H 0.0763427384 3.1835819112 -1.2425813179
H 0.3444089841 1.5608564224 -1.8309543222
H -1.1939850184 1.9728216618 -1.0595370981
C -2.1603890529 -0.4055128575 -0.2854910346
O -2.9997992155 -0.1490350655 -1.1378450727
C -2.4760694893 -0.4841101115 1.1862490762
H -1.8957558064 0.2392101832 1.7581230835
H -2.2394861558 -1.4724731034 1.5781508625
H -3.5341673649 -0.2861617231 1.3141958311
