36
0 1
N -1.2074980735 1.2634047645 -0.2311296453
C -1.5614241592 0.1629359228 -1.0962952405
C -2.0622273248 -1.0870562276 -0.3653402022
O -2.4348785590 -2.0680950287 -1.0023653318
C -0.3494224202 -0.2574433182 -1.9434454008
H -0.2444716038 1.3439084433 0.0712277302
H -2.3632718506 0.4666121875 -1.7692426650
H -0.6848768241 -1.0458001636 -2.6151055819
H -0.0320695666 0.5940551852 -2.5469769239
C -2.0560323998 2.2050486338 0.2920506645
O -1.6524652906 3.0607460013 1.0674422280
N -2.0469464005 -1.0212594902 0.9830448553
H -1.6224732420 -0.2088254096 1.3982155231
C -2.3795542228 -2.1692606664 1.7969570064
H -1.4918923258 -2.7477449053 2.0551466640
H -2.8724606839 -1.8461954732 2.7098568384
H -3.0502015553 -2.8022319945 1.2240382278
C -3.4976662257 2.1167558378 -0.1474381706
H -4.0602603730 2.8646416801 0.3999715992
H -3.9115966436 1.1285453608 0.0483607356
H -3.5873226397 2.3115625700 -1.2156204710
C 0.7706522094 -0.7439643339 -1.0854678621
C 0.9387688263 -2.0358299413 -0.6282889049
C 1.8143983471 0.0330414657 -0.4908692450
H 0.3514319216 -2.9139090172 -0.8438827604
C 2.5869478540 -0.8450785246 0.3189932690
C 2.1847568238 1.3888217656 -0.5658602068
H 2.3764538027 -2.9264609087 0.6455210809
C 3.2840567336 1.8220280968 0.1576853549
H 1.6268823452 2.0836951811 -1.1816722420
N 2.0238981405 -2.0910117724 0.2125376541
C 3.6978802659 -0.4095264143 1.0446937626
C 4.0323855111 0.9332323614 0.9548496618
H 4.2770798554 -1.0898402373 1.6554634047
H 4.8849023535 1.3053432797 1.5061212795
H 3.5766673943 2.8619100897 0.1111793139
