36
0 1
N 1.7041301175 1.1288419028 -0.1145724235
C 1.4397112353 -0.2959472734 -0.1723243237
C 2.7199428405 -1.1340795134 -0.1903343056
O 2.6823223087 -2.3232923124 -0.4847342163
C 0.5391258380 -0.6580299770 -1.3654944557
H 2.0817202342 1.5271955915 -0.9665851383
H 0.9168957040 -0.5789112557 0.7421134236
H 1.0068558065 -0.2853101022 -2.2804481222
H 0.4967541488 -1.7435351449 -1.4429890283
C 0.9171807694 2.0580330897 0.5439054058
O 0.9273814613 3.2305775593 0.1991817180
N 3.8454518896 -0.4682667309 0.1557542473
H 3.7342790854 0.4918851348 0.4359295882
C 5.1269229182 -1.1303638242 0.2601321146
H 5.8847706560 -0.5900377837 -0.3027312888
H 5.4468522015 -1.2144000694 1.2977105292
H 5.0115835543 -2.1270021558 -0.1544527138
C 0.1196374965 1.5639766613 1.7223709472
H -0.7378596867 0.9828971226 1.3810565603
H -0.2321531448 2.4312177607 2.2709098742
H 0.7164541675 0.9315904650 2.3777995146
C -0.8115929232 -0.0670896518 -1.1703257190
C -1.2575892144 1.1689764624 -1.5884907524
C -1.8365530495 -0.5996255396 -0.3285297077
H -0.7707478192 1.9015636608 -2.2116292412
C -2.8887056420 0.3546274107 -0.2821307867
C -1.9559919625 -1.7875523849 0.4123800912
H -3.0405012825 2.2499922356 -1.2210870353
C -3.1050017399 -1.9912390213 1.1599288473
H -1.1681375187 -2.5306691481 0.3949977328
N -2.5031991596 1.4158560446 -1.0622142470
C -4.0506489094 0.1462963713 0.4644607311
C -4.1413456298 -1.0362489568 1.1839719104
H -4.8487005764 0.8769594379 0.4876725002
H -5.0259025113 -1.2293302711 1.7753557405
H -3.2144656633 -2.9003627944 1.7353440291
