36
0 1
N -2.6008597477 -0.8175908625 -0.0686101982
C -1.3235850628 -0.1470248434 0.1274290515
C -1.5460259750 1.2425970039 0.7003063404
O -0.9883316332 1.6460940320 1.7082608205
C -0.5279355940 -0.0701187158 -1.1887819479
H -3.4429715761 -0.3295166642 0.1870476128
H -0.7303218034 -0.6976206851 0.8565882816
H -0.4783555063 -1.0816122426 -1.5924752203
H -1.0691440007 0.5468811918 -1.9098673030
C -2.6442200820 -2.1792013652 -0.1715076489
O -1.6297227529 -2.8592302038 -0.2543424729
N -2.4447917004 2.0033703495 0.0024286807
H -2.6811953735 1.7095247384 -0.9301926787
C -2.6336987574 3.3966946945 0.3567917299
H -3.5278668505 3.7717985089 -0.1324016904
H -2.7530642879 3.4698339713 1.4332683821
H -1.7786495471 4.0102705201 0.0713884828
C -4.0280706331 -2.7827668135 -0.1758494882
H -4.0797684072 -3.5257237958 -0.9665440758
H -4.8139254382 -2.0447361034 -0.3175977909
H -4.1863146211 -3.2940460486 0.7718764183
C 0.8379284912 0.4645133322 -0.9447496544
C 1.3120250042 1.7353556772 -1.1894328415
C 1.8996158516 -0.2472720143 -0.3066139186
H 0.8206882368 2.5747537727 -1.6547658720
C 3.0006234231 0.6413898170 -0.1977103452
C 2.0192731459 -1.5598102309 0.1798837450
H 3.1795788878 2.6618403099 -0.8112670217
C 3.2221952308 -1.9422560411 0.7511951086
H 1.1885753839 -2.2520449913 0.1087097757
N 2.6091780385 1.8379610143 -0.7456175015
C 4.2132464509 0.2548991200 0.3770966266
C 4.3060104251 -1.0462521199 0.8489108271
H 5.0484631053 0.9386992162 0.4559272551
H 5.2296583464 -1.3795152760 1.3023042624
H 3.3361383289 -2.9477242527 1.1329362688
