35
0 1
N 2.4650863844 0.0347149941 -0.4745124184
H 3.2817389783 0.5986079831 -0.6398207578
C 1.2097986334 0.6443964319 -0.9085849215
H 1.4170257305 1.1088428949 -1.8736491014
C 0.0482688109 -0.3250319864 -1.1107809552
C 0.8094410201 1.8513530187 -0.0503678457
H 0.3668531601 -1.1107998077 -1.7994795817
H -0.2014542604 -0.8128676933 -0.1756673711
C -1.1756567486 0.4002990039 -1.6551686392
O 0.7142030989 2.9528445647 -0.5887491048
H -0.9523761328 0.8626249435 -2.6197515945
H -1.4659744342 1.2049323481 -0.9789487707
C -2.3631956043 -0.5450014188 -1.8183076501
H -2.1511720080 -1.2973176198 -2.5787939909
H -3.2324610664 0.0128595154 -2.1640808796
N -2.7136678228 -1.2792069483 -0.5991808494
H -2.1002346455 -2.0635434054 -0.4337782904
C -2.9369697963 -0.5742107142 0.5801447919
N -2.5253324904 -0.8848947456 1.7576150617
N -3.6908329737 0.5770991457 0.3987190081
H -1.8900364208 -1.6777857873 1.7042055649
H -4.4521818577 0.4724421893 -0.2535867537
H -3.9919871078 0.9488331695 1.2863063596
N 0.5307874887 1.6763812256 1.2620722603
C 0.6273454503 0.4953361985 2.0971952508
H 0.2504802200 2.5378739522 1.7063804496
H 1.4107458986 0.6185465245 2.8458572955
H 0.8641454155 -0.3793299011 1.5042738466
H -0.3247541709 0.3148694804 2.5930231139
C 2.6963312368 -1.1959114476 0.0608301831
C 4.1575805285 -1.5079033190 0.2997056561
O 1.8215497600 -2.0038794699 0.3533361276
H 4.8356263888 -0.7164289460 -0.0096506963
H 4.2956472384 -1.7057538114 1.3601168243
H 4.4025890985 -2.4203895622 -0.2385306215
