36
0 1
N -1.4265369469 1.0181013460 -0.4610160380
C -1.6453027143 -0.2829986819 -1.0419100423
C -2.0200997504 -1.4156358676 -0.0807866403
O -2.5710779976 -2.4093568901 -0.5478268595
C -0.4165792634 -0.7255376314 -1.8534279878
H -0.4875266926 1.2563826429 -0.1706052102
H -2.4901546039 -0.2312517288 -1.7286819126
H -0.6822807806 -1.6554222148 -2.3550575468
H -0.2220718170 0.0273267202 -2.6191068404
C -2.3965287777 1.7934620348 0.1172453165
O -2.1046296598 2.7515368607 0.8217326768
N -1.7738234367 -1.3055614456 1.2523171351
H -2.0777029298 -2.1355786918 1.7385652172
C -0.8813317323 -0.4113818842 1.9805202276
H -1.3123390549 0.5745901253 2.1363982659
H -0.7019464765 -0.8606328773 2.9542922814
H 0.0802289776 -0.3095328491 1.4807084772
C -3.8235879617 1.3993240362 -0.1743535579
H -4.4755566104 2.1242477346 0.3000416708
H -4.0400472296 0.4056219527 0.2173869450
H -4.0152181196 1.3823233578 -1.2462887516
C 0.7839175047 -0.9254260462 -0.9912138724
C 1.1317794625 -2.0984804310 -0.3522543453
C 1.7266811688 0.0617127381 -0.5625817218
H 0.6658729590 -3.0691820285 -0.4106310553
C 2.6210817886 -0.5724761122 0.3437386959
C 1.9119984047 1.4259431705 -0.8552782909
H 2.6962995371 -2.5888595036 0.9879485972
C 2.9547271362 2.1038495157 -0.2449922444
H 1.2577165893 1.9384251882 -1.5497721572
N 2.2252585797 -1.8819659976 0.4507014799
C 3.6751102650 0.1096402766 0.9558061330
C 3.8263675589 1.4538514821 0.6512409243
H 4.3486708368 -0.3873158215 1.6418758235
H 4.6298304425 2.0139499213 1.1093789115
H 3.1058993443 3.1528195996 -0.4593337038
