36
0 1
N 2.4374480070 -1.3603511007 0.1207411417
C 1.4396004289 -0.4358993325 -0.3897414841
C 1.7858742605 1.0161238358 -0.0461349866
O 1.6048709298 1.9299019937 -0.8437220348
C 0.0973373984 -0.8420110029 0.2228042241
H 2.1013808685 -2.1963143176 0.5785159694
H 1.3643483903 -0.4821555993 -1.4783249682
H -0.0282567217 -1.9139113458 0.0342483738
H 0.1665802363 -0.7247003036 1.3090127931
C 3.7268369173 -1.4949530366 -0.3521187228
O 4.4125634217 -2.4518753908 -0.0289624080
N 2.2658051941 1.1882593347 1.2064842542
H 2.5152568948 0.3561401874 1.7151693290
C 2.6434225315 2.4901822961 1.7115736080
H 2.1734424093 3.2363223806 1.0788415719
H 2.2954666100 2.6110226586 2.7343328813
H 3.7230347432 2.6367989414 1.6827879284
C 4.2299768183 -0.3815030075 -1.2346148263
H 3.5505181832 -0.1799313611 -2.0609337229
H 5.2021520752 -0.6706349508 -1.6176774323
H 4.3261268426 0.5412906975 -0.6639643368
C -1.1056698368 -0.1228903350 -0.2902131486
C -1.1946984591 0.8659001319 -1.2476708299
C -2.4429720700 -0.3961445332 0.1366587283
H -0.4102061465 1.3717430681 -1.7839347170
C -3.3056573811 0.4601404364 -0.5971803886
C -2.9983256962 -1.2873224348 1.0692782183
H -2.8373433787 1.9242334353 -2.0543901513
C -4.3727274536 -1.2973589565 1.2458991352
H -2.3666456388 -1.9545625783 1.6422516961
N -2.5137623252 1.2078062268 -1.4291767584
C -4.6908678401 0.4514994865 -0.4211318331
C -5.2101036630 -0.4366626311 0.5091021297
H -5.3377927487 1.1098866533 -0.9861887048
H -6.2787612902 -0.4697022634 0.6712832225
H -4.8155585113 -1.9770182825 1.9611592494
