36
0 1
N 2.3968113640 0.2612032394 0.2600439323
C 1.7135907834 0.8964036652 -0.8536468419
C 0.8230080972 2.0232494907 -0.3469186953
O 0.5642764624 2.9887887450 -1.0529908145
C 0.8457857860 -0.0863448393 -1.6735122692
H 2.4917618679 0.8113526741 1.0973912734
H 2.4294266878 1.3566193237 -1.5370922186
H 0.3263142951 0.5162938371 -2.4205777580
H 1.5130119797 -0.7704162402 -2.1894429132
C 3.1755534810 -0.8529553211 0.1615172942
O 3.3037990539 -1.5023534727 -0.8689025831
N 0.3478304258 1.8699480981 0.9221720691
H 0.3170506196 0.9195890782 1.2610932720
C -0.6479475861 2.7975333340 1.4275279569
H -1.6321481490 2.6005532431 1.0021134853
H -0.6971708837 2.7112128227 2.5093662917
H -0.3465894229 3.8046389602 1.1572224720
C 3.8314745752 -1.2753358004 1.4570000113
H 4.8420567813 -1.6096423772 1.2419530229
H 3.2778467444 -2.1210035932 1.8625383812
H 3.8579584072 -0.4864488704 2.2052415991
C -0.1304773470 -0.8418805061 -0.8410501018
C 0.0827592513 -2.0646623808 -0.2362847094
C -1.4568895019 -0.4433234141 -0.4836184740
H 0.9517047013 -2.7012736217 -0.2844885287
C -2.0007024647 -1.4645960364 0.3428307323
C -2.2498429370 0.6736382119 -0.7993561568
H -1.1455220805 -3.2980934875 0.9712179877
C -3.5356331470 0.7424522918 -0.2859767142
H -1.8617407775 1.4666818367 -1.4270671300
N -1.0352088711 -2.4311053175 0.4756539569
C -3.2943206627 -1.3926051915 0.8649909991
C -4.0517449001 -0.2767059388 0.5398522694
H -3.6966467070 -2.1767636663 1.4933405101
H -5.0592920305 -0.1900444176 0.9231106970
H -4.1600378957 1.5932156410 -0.5240373052
