36
0 1
N -1.4573787793 1.3852858936 0.2804876265
C -1.9474742965 0.4255243043 -0.6939798475
C -2.3742803066 -0.8582523269 -0.0025945184
O -3.2229988582 -1.5932971757 -0.4865471864
C -0.8842715664 0.0504471639 -1.7548256648
H -1.6805153354 1.2091882995 1.2462980131
H -2.8194893741 0.8231701572 -1.2153684058
H -1.3960966033 -0.5539821475 -2.5050899849
H -0.5507196292 0.9702666400 -2.2308044018
C -1.1335534113 2.6674712874 -0.0586129606
O -1.0952780092 3.0560796633 -1.2194510874
N -1.7231020093 -1.1382340243 1.1687740588
H -0.8058316689 -0.7207802354 1.2510916957
C -1.8832443408 -2.4647107383 1.7361350894
H -1.4139731611 -2.4900059391 2.7152063530
H -2.9421819284 -2.6800672045 1.8371544765
H -1.4403058975 -3.2312383633 1.0977590596
C -0.7498514578 3.5430305637 1.1105747197
H 0.2996648779 3.3692115432 1.3483745363
H -1.3388977647 3.3265974552 1.9998874360
H -0.8782625168 4.5825049419 0.8278150505
C 0.2535685652 -0.7159715284 -1.1728716123
C 0.3589894062 -2.0916712865 -1.1256621106
C 1.3719961471 -0.2038142573 -0.4426884927
H -0.2906771422 -2.8391356259 -1.5527120216
C 2.1151378384 -1.3188665837 0.0352740491
C 1.8440515313 1.0934763129 -0.1723040731
H 1.7949661260 -3.3913436636 -0.2655911563
C 3.0055755077 1.2386281051 0.5685355066
H 1.3243807263 1.9579996932 -0.5642521256
N 1.4659809799 -2.4502826330 -0.3926269763
C 3.2852005351 -1.1726365475 0.7853780448
C 3.7151165938 0.1188126429 1.0495574879
H 3.8405118258 -2.0304863786 1.1421123942
H 4.6180070853 0.2696119031 1.6253615551
H 3.3864853110 2.2298690891 0.7750094731
