36
0 1
N 2.9379566663 -0.4620441823 -0.5093968556
C 1.6262514605 -0.1520141412 0.0031374636
C 0.9137387790 -1.4829209948 0.2132076581
O 1.0211232093 -2.3572324766 -0.6442500182
C 0.7974419439 0.6862118471 -0.9958910366
H 2.9943606066 -1.2729256255 -1.1112984401
H 1.7200746071 0.4012453002 0.9340114257
H 0.7048132495 0.0998855517 -1.9122011101
H 1.3730184598 1.5806802253 -1.2401192981
C 4.0580203719 0.3117438603 -0.4177636828
O 5.0953778615 0.0150109630 -0.9940456228
N 0.1702785788 -1.6608078366 1.3295604351
H -0.3558430878 -2.5220750045 1.3077656550
C -0.1807876543 -0.6918311003 2.3481243705
H -0.4921346457 -1.2331724653 3.2380248527
H 0.6800384048 -0.0865498819 2.6171669136
H -0.9924335194 -0.0355206848 2.0312106378
C 3.9546264236 1.5344058115 0.4687815210
H 3.1430657519 2.1917426237 0.1602102362
H 4.8955215963 2.0695003419 0.4050297692
H 3.7780749879 1.2454822819 1.5046518171
C -0.5435087387 1.0572183527 -0.4609708099
C -0.8539646151 2.2113083092 0.2293891269
C -1.7352784346 0.2648272666 -0.4740488679
H -0.2351697751 3.0675238592 0.4461301618
C -2.7351559378 0.9914736524 0.2272022348
C -2.0567358474 -0.9960120786 -1.0078074467
H -2.6434379795 2.9111575101 1.1214916038
C -3.3425271818 -1.4809239184 -0.8324736480
H -1.3122641075 -1.5797106067 -1.5341182406
N -2.1616731053 2.1663595887 0.6492280154
C -4.0324097920 0.5032445125 0.4025263588
C -4.3203680704 -0.7412932918 -0.1362603856
H -4.7847545975 1.0701354217 0.9354798977
H -5.3145728868 -1.1511969396 -0.0217792383
H -3.6062169819 -2.4477630506 -1.2392304536
