36
0 1
N -2.7090185835 -0.2473742773 -0.8537543520
C -1.4582681654 -0.6684094401 -0.2624330128
C -0.9532229906 0.2007843253 0.8930424027
O -0.5010135641 -0.3355375563 1.8983540311
C -0.3967424050 -0.7957370084 -1.3681778343
H -2.6772218243 0.2505052401 -1.7310573163
H -1.5759301753 -1.6510789702 0.1952451944
H -0.7268852558 -1.5810177340 -2.0509234559
H -0.3625245018 0.1304741951 -1.9470468974
C -3.9031443346 -0.1064493215 -0.1927250768
O -4.8332784047 0.5063712367 -0.6993506800
N -1.0145732657 1.5544519343 0.7761090490
H -0.6387395667 2.0236108704 1.5853453424
C -1.5021745402 2.3757479464 -0.3145519105
H -1.1331251893 3.3863970823 -0.1588754159
H -1.1180498870 2.0392829076 -1.2750261276
H -2.5898321120 2.4077181123 -0.3633834966
C -3.9906457942 -0.7728604569 1.1564809965
H -3.7769139651 -1.8376998461 1.0721689349
H -4.9956941360 -0.6317717556 1.5376981948
H -3.2702273917 -0.3527588980 1.8568773591
C 0.9571801839 -1.0842653193 -0.8178048637
C 1.4385208710 -2.3093764655 -0.4080412884
C 1.9657591046 -0.1254119318 -0.4958116410
H 0.9772362564 -3.2821106039 -0.4613986650
C 3.0408357701 -0.8303859235 0.1089926597
C 2.0780403179 1.2647993240 -0.6662757275
H 3.2458161868 -2.8968559440 0.5224600648
C 3.2312700558 1.9003730056 -0.2361879041
H 1.2839014132 1.8322535199 -1.1340523343
N 2.6851392216 -2.1539530813 0.1444374398
C 4.2043897865 -0.1921122154 0.5436283297
C 4.2825803806 1.1806089388 0.3660823956
H 5.0142929550 -0.7431795391 1.0035888441
H 5.1682072581 1.7082444090 0.6926103548
H 3.3320652914 2.9697122404 -0.3641295933
