36
0 1
N 2.9217918152 -0.3219809084 0.1314981106
C 1.7255814841 0.1653958957 -0.5448724459
C 1.4361178707 1.5920647499 -0.0899077320
O 1.4701754652 2.5185284371 -0.8905437540
C 0.5417260883 -0.8041433538 -0.3838030246
H 3.3701849753 0.2842562466 0.7983139360
H 1.9479913309 0.2565614740 -1.6078827978
H 0.5290375757 -1.1924763064 0.6330443164
H 0.7385052038 -1.6562570930 -1.0350388150
C 3.6625269514 -1.3261959664 -0.4269248930
O 3.2757887493 -1.9528827847 -1.4032533135
N 1.2214793990 1.8125082709 1.2407352488
H 0.9831348953 2.7769688115 1.4197834058
C 0.8113899979 0.8439091650 2.2439113830
H 1.4552240133 -0.0300056398 2.2129394410
H 0.9224272876 1.3045357993 3.2223170776
H -0.2254109953 0.5286470471 2.1193457636
C 4.9821312194 -1.6080689084 0.2506963850
H 5.0919061407 -1.0952143063 1.2031890068
H 5.7857244180 -1.3003074914 -0.4154831004
H 5.0701712823 -2.6799930534 0.4037131272
C -0.7782173516 -0.1695462788 -0.6796936978
C -1.0728384846 0.7531077256 -1.6639368804
C -1.9957047751 -0.3946627993 0.0346201627
H -0.4277379439 1.2124104952 -2.3942069252
C -2.9970205782 0.4215402149 -0.5591000919
C -2.3428289854 -1.2091940077 1.1262909911
H -2.8499881989 1.7785030126 -2.1781835275
C -3.6469044311 -1.1807287670 1.5940720160
H -1.6085693593 -1.8580331325 1.5876352788
N -2.4012706108 1.0980962383 -1.5907711950
C -4.3126230715 0.4489928379 -0.0909632176
C -4.6217823929 -0.3595810970 0.9926240473
H -5.0650847613 1.0750168417 -0.5528301341
H -5.6310595877 -0.3630460552 1.3809134902
H -3.9283276358 -1.8035033136 2.4323663579
