35
0 1
N 2.5296901256 0.0260750076 -0.5617917288
H 3.2319398742 0.6243901504 -0.9630410386
C 1.1695851916 0.2962053606 -1.0219594396
H 1.2433479920 0.4592215754 -2.0984100152
C 0.1598195607 -0.8286316105 -0.8047544667
C 0.6415398406 1.6476610775 -0.5230811438
H 0.5976725238 -1.7691062457 -1.1410209684
H -0.0548281302 -0.9470043995 0.2528091241
C -1.1242775846 -0.5418437391 -1.5754397661
O 0.3604967264 2.5166957324 -1.3479374602
H -0.9389099199 -0.6240260787 -2.6492946494
H -1.4636525603 0.4799681880 -1.3961868124
C -2.2462998560 -1.4988230098 -1.1845106256
H -1.9279194827 -2.5341963091 -1.3107988983
H -3.1011310544 -1.3524351343 -1.8430915279
N -2.6841754229 -1.3570743938 0.2037645196
H -2.0244770494 -1.7224427870 0.8760301803
C -3.1361237854 -0.1239157199 0.6472049721
N -2.7323579705 0.3359359133 1.7779587133
N -3.9998752625 0.4985950980 -0.2472988871
H -3.2570627684 1.1730779276 2.0196655009
H -4.6246373003 -0.1300154920 -0.7275519201
H -4.4808064874 1.2936751626 0.1399372459
N 0.4899107595 1.8533028599 0.8048691229
C 0.6564745240 0.9418921325 1.9225080154
H 0.0812397025 2.7547175749 1.0007573813
H -0.3148105785 0.6435318540 2.3171586523
H 1.2355287618 1.4312290561 2.7045502897
H 1.1929498522 0.0518648430 1.6177685504
C 2.9862395233 -0.9426889492 0.2791992151
C 4.4902233878 -0.9654039804 0.4468967942
O 2.2692840893 -1.7343405048 0.8800914011
H 5.0145083048 -0.2337592343 -0.1628318795
H 4.7196278658 -0.7894347999 1.4953919476
H 4.8450926080 -1.9620721259 0.1962786013
