36
0 1
N 2.9297215640 -1.0609228775 -0.3750380890
C 1.5909163219 -0.6008411171 -0.7068630401
C 1.5983275956 0.9404432274 -0.7515410587
O 2.6262113925 1.5448019647 -1.0410940724
C 0.5401035219 -1.2649087173 0.1977315754
H 3.5663882904 -1.1168009648 -1.1537011801
H 1.4009835481 -0.9266228294 -1.7326250747
H 0.6147917198 -0.8366045661 1.1945198227
H 0.8290322488 -2.3135642122 0.2852965398
C 3.5036407053 -0.6048378474 0.7884661060
O 2.8433973081 -0.1243697752 1.6976458146
N 0.4309546025 1.5663616312 -0.5074581118
H -0.3990846028 1.0298563994 -0.3186255146
C 0.3531245686 3.0108549222 -0.5555739548
H 0.4727240350 3.3819743858 -1.5728432455
H -0.6157473808 3.3167966398 -0.1714486490
H 1.1413240033 3.4444966546 0.0553909640
C 5.0028811920 -0.7450722220 0.8515188985
H 5.3664924409 -1.5719307675 0.2457803307
H 5.3050922238 -0.8805711114 1.8848063044
H 5.4405648941 0.1813618413 0.4804215864
C -0.8629508262 -1.1594837830 -0.3113897780
C -1.3756669664 -1.7080461189 -1.4708640495
C -1.9451535468 -0.4488263051 0.2999918521
H -0.8935330327 -2.3243145051 -2.2126941583
C -3.0845925550 -0.5963470215 -0.5374568800
C -2.0563595402 0.3191782479 1.4741522622
H -3.2964227832 -1.6517769477 -2.3610168076
C -3.2770105413 0.9022986402 1.7726469625
H -1.2052485920 0.4491899572 2.1308437943
N -2.7013656588 -1.3713036291 -1.6014220181
C -4.3162347165 -0.0118933714 -0.2337958565
C -4.3948863805 0.7384298272 0.9295903761
H -5.1765013882 -0.1351038010 -0.8787866183
H -5.3328310001 1.2060641924 1.1959117021
H -3.3792666651 1.4934449593 2.6724682653
