36
0 1
N -2.7481657981 -0.5879194717 0.5540410861
C -1.3352130267 -0.2343080409 0.5137071565
C -1.1595620877 1.2383011974 0.1268064126
O -0.7187332266 1.5810677960 -0.9652482787
C -0.4619611267 -1.1551147593 -0.3493828087
H -3.1281257536 -0.8899619527 1.4380044323
H -0.9868866461 -0.3494279603 1.5403739007
H -0.5322375184 -0.8548568485 -1.3929991760
H -0.8744275608 -2.1614511741 -0.2576738053
C -3.6776270452 -0.6608061396 -0.4562752356
O -4.8257217703 -0.9983845587 -0.2019321351
N -1.5390619422 2.1506265958 1.0581688211
H -1.4864991157 3.1010742809 0.7261738093
C -2.2098269413 1.9022731103 2.3166467328
H -1.7089635705 1.1157057639 2.8767374465
H -2.1587736898 2.8075559313 2.9150355266
H -3.2561919653 1.6284021082 2.1837576124
C -3.2220922633 -0.3502363732 -1.8581673385
H -2.4497376611 0.4115377778 -1.9072643017
H -4.0940336361 -0.0465744575 -2.4282821366
H -2.8284527902 -1.2645084722 -2.3022281874
C 0.9658290101 -1.1552128866 0.0959093214
C 1.4769442811 -1.9681551323 1.0892406457
C 2.0595318035 -0.3531761559 -0.3662702354
H 0.9828442607 -2.7309206566 1.6700926664
C 3.2052025115 -0.7297189864 0.3872510261
C 2.1990271400 0.6323047909 -1.3601512998
H 3.4178832419 -2.1926694381 1.9050549165
C 3.4468092263 1.1970956056 -1.5646243058
H 1.3412618980 0.9519662941 -1.9334629138
N 2.8123299800 -1.7069742757 1.2676569894
C 4.4623170336 -0.1559521178 0.1847952743
C 4.5674089148 0.8115565451 -0.8019430431
H 5.3218617148 -0.4561718728 0.7701974480
H 5.5253334074 1.2774966576 -0.9891838958
H 3.5664977121 1.9566992758 -2.3253241274
