33
0 1
N 0.8799640782 0.7037313735 -0.5113060391
C 1.1070450519 -0.5546134019 0.1835822359
C 2.5324311292 -1.0601326294 -0.0794065778
O 2.7669030684 -2.0190840036 -0.8080909559
C 0.0771833260 -1.5849182410 -0.2664442307
C -1.3223812081 -1.0572756614 -0.1375279850
C -2.0759278333 -0.7261972913 -1.2674007258
C -1.8915891452 -0.8288644328 1.1180978041
C -3.3524267693 -0.1816206317 -1.1582625255
C -3.1667538905 -0.2868081292 1.2428179318
C -3.9000544758 0.0428072356 0.1022159271
O -5.1546716455 0.5802215304 0.1589619535
H 0.2642269889 0.6966923141 -1.3079860605
H 1.0011021918 -0.3478085340 1.2509933586
H 0.2951428351 -1.8647895452 -1.2973410869
H 0.2198633522 -2.4848756842 0.3317567944
H -1.6654789524 -0.9152927620 -2.2526112089
H -1.3355616434 -1.0801107919 2.0132782656
H -3.9344989329 0.0669880032 -2.0345536003
H -3.5926895674 -0.1210920844 2.2254085875
H -5.4038428155 0.6658744576 1.0849956349
N 3.4800647948 -0.3482908432 0.5668085200
H 3.1789393944 0.5100089809 1.0144887618
C 4.8836324608 -0.6112954864 0.3347240645
H 5.2219782091 -0.2058724573 -0.6193897655
H 5.4657487468 -0.1671524289 1.1366825350
H 5.0471037308 -1.6850374572 0.3207455545
C 1.2138470237 1.8962637001 0.0366011102
O 1.8754551906 1.9819433205 1.0727504769
C 0.7216249927 3.1167853652 -0.6968658887
H 0.0169119941 3.6400988253 -0.0540236947
H 0.2359986845 2.8813543880 -1.6404814688
H 1.5633096353 3.7805760027 -0.8760537024
