35
0 1
N 2.3625924206 -0.5458403259 -0.9249455015
H 2.8126018406 -0.4124598362 -1.8148153044
C 1.0936665157 0.1621148861 -0.7732456777
H 0.5919989912 0.0945042500 -1.7393800756
C 0.1321646992 -0.4182921993 0.2643499630
C 1.2714311732 1.6726878609 -0.5942140253
H 0.0833301420 -1.4987250151 0.1249904832
H 0.5006471231 -0.2556775938 1.2747433596
C -1.2579335266 0.1854714992 0.1039078279
O 0.6987757213 2.4408753113 -1.3620881399
H -1.6619920548 -0.0616128190 -0.8798991281
H -1.2130382860 1.2751384301 0.1639997372
C -2.2084905292 -0.3394182902 1.1715149438
H -1.8617095430 -0.0448444715 2.1628620831
H -2.2146201934 -1.4279160582 1.1542774182
N -3.5805870946 0.1423553874 1.0286431603
H -3.6593668335 1.1332768055 1.2078380778
C -4.3127478128 -0.2121963023 -0.1030967057
N -5.1089821065 0.5318863955 -0.7783340851
N -4.1234727435 -1.5378417478 -0.4869352589
H -5.0398198650 1.4952590936 -0.4610820557
H -4.1281187637 -2.1860931119 0.2859627775
H -4.8034966528 -1.7879250069 -1.1891886362
N 2.0175988449 2.1333515822 0.4426706796
C 2.8727646893 1.4003230693 1.3539559623
H 2.0911724498 3.1393216846 0.4372645348
H 3.8852350975 1.2854547434 0.9632849712
H 2.4752508865 0.4123955549 1.5584275456
H 2.9248033750 1.9450558939 2.2937991166
C 2.9497517266 -1.4552800652 -0.0961832976
C 4.1892557595 -2.1091632722 -0.6668469579
O 2.5395260325 -1.7369764567 1.0229489855
H 3.9752213386 -3.1636794164 -0.8287348914
H 4.5289364899 -1.6693330420 -1.6014008195
H 4.9820586884 -2.0445534172 0.0735699332
