33
0 1
N -2.5968488378 -0.1966254846 0.0597069604
C -1.1631848459 -0.1103396738 0.3079017245
C -0.8097956376 1.2278169859 0.9417928248
O -0.2000007335 1.2764339293 1.9996060337
C -0.3322876882 -0.4049409285 -0.9544141404
C 1.1334169866 -0.3543118054 -0.6406416065
C 1.8951515188 0.7863520157 -0.9074053298
C 1.7577391556 -1.4321686247 -0.0098000126
C 3.2401145621 0.8556394213 -0.5623834817
C 3.1024965497 -1.3750182337 0.3423006202
C 3.8465794003 -0.2280639702 0.0686018083
O 5.1708917639 -0.1113221808 0.3880199560
H -3.1738041966 0.5719220188 0.3605838411
H -0.8894108769 -0.8552706025 1.0553353575
H -0.6228539154 -1.3981135329 -1.2943048832
H -0.5752342415 0.3036657983 -1.7441483194
H 1.4329320758 1.6335635335 -1.3999566672
H 1.1863076871 -2.3271995954 0.2047140330
H 3.8301650915 1.7366943470 -0.7719538955
H 3.5738196035 -2.2211324725 0.8283932269
H 5.4428254457 -0.9216642155 0.8310038844
N -1.2441800985 2.3728843860 0.3230891377
H -0.9106162312 3.1943908661 0.8063069739
C -1.6668178898 2.5571848341 -1.0528654180
H -0.8267336311 2.7039333715 -1.7340520881
H -2.2390408408 1.7001994809 -1.3909066032
H -2.3084952687 3.4339623392 -1.1069796208
C -3.1913534767 -1.4254103313 -0.0473933210
O -2.5417120905 -2.4584667509 -0.1267803446
C -4.7008016599 -1.4109788366 -0.0742762461
H -5.1176804445 -0.4100999813 -0.1559323093
H -5.0678031278 -1.8791173800 0.8369123001
H -5.0374431079 -2.0128187272 -0.9139423953
