33
0 1
N 0.9269135319 0.6124260684 1.0389169689
C 1.1472152349 -0.7386406183 0.5312307388
C 2.6152811013 -1.1213142765 0.3236837957
O 3.0402146198 -2.1796910412 0.7787939339
C 0.3260248274 -1.0348709482 -0.7373346757
C -1.1230860982 -0.7113364503 -0.5251880406
C -1.6757611049 0.4737383723 -1.0210829294
C -1.9418115823 -1.5554174269 0.2288138127
C -3.0027718326 0.8105090965 -0.7731009101
C -3.2711247867 -1.2291764986 0.4840735651
C -3.8041760906 -0.0408363032 -0.0147766085
O -5.1000015821 0.3377039226 0.2004709836
H 0.4902896274 0.6794976921 1.9419596157
H 0.8034254692 -1.4064670250 1.3184903710
H 0.7232605584 -0.4607323252 -1.5716189752
H 0.4625245118 -2.0947350120 -0.9595457065
H -1.0580478297 1.1366097428 -1.6144272665
H -1.5416417740 -2.4856951085 0.6149787585
H -3.4329600755 1.7218728112 -1.1648565416
H -3.8944141159 -1.9000595415 1.0637634036
H -5.5318495441 -0.3522535595 0.7147452950
N 3.3346266353 -0.2537720520 -0.4175965431
H 2.8548907184 0.5699413816 -0.7654347157
C 4.7231809774 -0.4976414804 -0.7392126894
H 4.9678417519 -1.5033349087 -0.4116134826
H 4.8850477335 -0.4183260249 -1.8122704912
H 5.3783879902 0.2091295988 -0.2314850560
C 0.9789584576 1.7522071515 0.3103028334
O 1.4491779510 1.8019493735 -0.8287476986
C 0.3893630422 2.9674955922 0.9786907752
H 0.4357112927 2.9112668770 2.0639749055
H -0.6559707637 3.0463983169 0.6800848917
H 0.9156491480 3.8510396034 0.6324356824
