33
0 1
N -2.7246336575 -0.8156465614 -0.7655473358
C -1.4591044470 -0.3544312915 -0.2632562190
C -1.4391502378 1.1593800274 -0.4028712893
O -2.1008153611 1.7267347852 -1.2696563247
C -0.2835728279 -0.9744905532 -1.0522642974
C 1.0396020520 -0.5578216723 -0.4865375576
C 1.4717783870 -1.0661726728 0.7446213382
C 1.8267549955 0.4110886381 -1.1116961022
C 2.6456188474 -0.6157719113 1.3399255117
C 3.0076226996 0.8658305298 -0.5291294278
C 3.4172728452 0.3560414776 0.7026170335
O 4.5603973766 0.7611766740 1.3307722947
H -3.2295268616 -0.1745797518 -1.3579804322
H -1.3638378491 -0.6519733560 0.7821471946
H -0.4103670124 -2.0557912919 -0.9977094870
H -0.3751350481 -0.6653488022 -2.0946827649
H 0.8816589783 -1.8287898422 1.2395595820
H 1.5100731651 0.8205713848 -2.0632311084
H 2.9820948611 -1.0127120809 2.2874956887
H 3.6098509490 1.6139120252 -1.0313962162
H 5.0011449934 1.4069750759 0.7687911084
N -0.6366006462 1.8049239687 0.4729015676
H -0.0128868997 1.2386120788 1.0256831522
C -0.3318915425 3.2113104505 0.3091434824
H -1.2103672253 3.7049292915 -0.0935217663
H -0.0828375959 3.6428288222 1.2743064976
H 0.5010333452 3.3633361614 -0.3787642010
C -3.1948729263 -2.0483820160 -0.4509138761
O -2.5694327788 -2.8200309093 0.2706178590
C -4.5355894566 -2.4051332237 -1.0445175623
H -4.4163546521 -3.2954648154 -1.6573353782
H -4.9632881186 -1.6074489537 -1.6464393882
H -5.2172003509 -2.6511306852 -0.2339425761
