28
0 1
N 1.0143915586 -0.1799877972 -0.4610041330
C 0.1344765599 0.4609403183 0.4906230689
C -1.2856503138 -0.1123277054 0.5264777012
O -2.0856114801 0.2852941821 1.3660978278
C 0.0517803295 1.9744389784 0.2407374730
C 1.4078239386 2.6362777489 0.4470580317
C -0.5216449895 2.2984673095 -1.1353348314
H 1.2013146299 0.2839769787 -1.3376217793
H 0.5285296030 0.3207846957 1.4978278518
H -0.6454067231 2.3413032508 0.9944412974
H 1.8007125847 2.4272580591 1.4419490128
H 1.3238507580 3.7167489057 0.3369845049
H 2.1370158862 2.2836690621 -0.2826521483
H -1.4877002892 1.8198018546 -1.2920522543
H -0.6596341944 3.3739501472 -1.2368780551
H 0.1484487132 1.9900836980 -1.9403672330
N -1.5634920999 -1.0427625158 -0.4143380752
H -0.8248598669 -1.2777653730 -1.0557342154
C -2.8656734375 -1.6626652970 -0.5236452960
H -3.3670568234 -1.3688278995 -1.4444152392
H -2.7800733643 -2.7468215388 -0.4965889776
H -3.4558286594 -1.3261843560 0.3232948248
C 1.8049538408 -1.2817713928 -0.2442942787
O 2.5745168611 -1.6839906485 -1.1046832820
C 1.6496666975 -1.9547425548 1.0970417101
H 0.6037215968 -2.1407357758 1.3352294938
H 2.0656942519 -1.3273728564 1.8850346869
H 2.1949794317 -2.8913604783 1.0675813136
