28
0 1
N -1.2558840995 -0.0401957845 0.3228763945
C -0.1646653078 0.5718980509 -0.4185614102
C 1.0428004578 -0.3509700290 -0.5761856623
O 1.9219036408 -0.0908272381 -1.3901396178
C 0.2336046378 1.8912772195 0.2654425545
C 0.9325547389 1.6561538446 1.6018101165
C 1.0909648640 2.7633493621 -0.6432620007
H -1.6101077489 0.4532464055 1.1261192949
H -0.5024575979 0.7765721909 -1.4359498863
H -0.7078825653 2.4201715642 0.4495193563
H 0.3594862960 1.0089526519 2.2666106518
H 1.0935918128 2.6042763602 2.1134960837
H 1.9048713526 1.1903293189 1.4420559262
H 0.5828548309 2.9690365447 -1.5844647919
H 1.3020912104 3.7131521165 -0.1525063149
H 2.0305737826 2.2672563968 -0.8741955402
N 1.0933915495 -1.4038574039 0.2717754960
H 0.2587399837 -1.6030778611 0.7949811646
C 2.1304156883 -2.4054362031 0.1529246186
H 3.0280070452 -1.9184242082 -0.2150789441
H 2.3286758559 -2.8457281832 1.1264679489
H 1.8533126076 -3.1921938941 -0.5489234737
C -2.0932309985 -0.9337603636 -0.2953905023
O -1.8291643711 -1.4138537465 -1.3868904756
C -3.3454288512 -1.2850572647 0.4725413305
H -3.3042494422 -0.9843996384 1.5169536122
H -3.5044904453 -2.3575085112 0.4073907308
H -4.1925979272 -0.7942736972 -0.0034566601
