28
0 1
N 0.5422876130 0.8554802488 -0.8632551717
C 0.2287751608 -0.5510381512 -0.6334566314
C -1.1966486868 -0.6951000245 -0.0733376056
O -1.5099699095 -1.5862697162 0.7026725644
C 1.2521938446 -1.3090654817 0.2282487103
C 1.1565924456 -2.8042447795 -0.0623501050
C 2.6721117512 -0.8239046543 -0.0373759991
H 1.0900443770 1.0821181689 -1.6764526995
H 0.2152953202 -1.0128340821 -1.6256482209
H 1.0001743252 -1.1318912910 1.2732108898
H 0.1483600227 -3.1712227593 0.1045133281
H 1.8376570306 -3.3594868458 0.5820027225
H 1.4426487508 -3.0048257298 -1.0978891007
H 2.8215745475 0.2110886400 0.2651415202
H 3.3806860339 -1.4357690390 0.5198268547
H 2.9253455645 -0.9134896081 -1.0968784441
N -2.0931743771 0.1882983860 -0.5805706656
H -1.7146014815 1.0026448511 -1.0316365370
C -3.4310332462 0.2429547646 -0.0293611865
H -3.4345215717 0.6587739288 0.9785580968
H -4.0567233466 0.8525764431 -0.6748747025
H -3.8361611106 -0.7632638665 0.0179058460
C 0.6096247181 1.7284448458 0.1922761414
O 0.1847883016 1.4335440694 1.2992828534
C 1.2284332068 3.0702948512 -0.1181275799
H 2.2486013308 3.0782620838 0.2635188742
H 0.6715895178 3.8413860320 0.4057695320
H 1.2502588672 3.2910837158 -1.1828322845
