35
0 1
N 2.4072020227 0.1767302198 -0.5578288295
H 3.0046447394 0.9750998073 -0.6900423513
C 1.0460196072 0.3457115490 -1.0540842797
H 1.1361084470 0.8826191838 -1.9998904680
C 0.3098004560 -0.9607241725 -1.3775092734
C 0.2109082137 1.3262335143 -0.2216111172
H 0.9429913642 -1.5175039000 -2.0680599364
H 0.2204428240 -1.5748234634 -0.4882226076
C -1.0757977977 -0.6965011212 -1.9890676093
O -0.4329000148 2.1940216803 -0.8251657067
H -1.1715847267 -1.2134730547 -2.9448873688
H -1.2029088844 0.3652579175 -2.1984426397
C -2.2048887776 -1.1801731070 -1.0769527014
H -2.1985575475 -2.2704626884 -1.0615297235
H -3.1704047044 -0.8611619316 -1.4695547333
N -2.0574383010 -0.7326834111 0.3002966454
H -1.9031449596 -1.4507822740 0.9895213768
C -2.7553364811 0.3186495885 0.8519059369
N -2.9582337206 0.3173922002 2.1257656367
N -3.1723048696 1.2698758068 -0.0769523073
H -3.3934254804 1.1925209911 2.4037993336
H -2.4145478311 1.5846052601 -0.6753757907
H -3.5967352649 2.0646414467 0.3765718279
N 0.2281260269 1.2701355455 1.1236612359
C 0.5939135410 0.1472123606 1.9668709998
H -0.3951628738 1.9499983949 1.5355620967
H 1.4140486380 0.4145947176 2.6325418770
H 0.8995873593 -0.7032014665 1.3692326839
H -0.2754430437 -0.1359469936 2.5596680990
C 2.9958376347 -0.9054594261 0.0272796292
C 4.4621201581 -0.7146879937 0.3500460125
O 2.4160473131 -1.9474857494 0.3059132164
H 5.0095337817 -1.5697759957 -0.0373981886
H 4.8880274129 0.1999386225 -0.0550961149
H 4.5769347389 -0.7132680574 1.4321281393
