35
0 1
N -1.2959035693 1.3038214995 0.2195571155
H -0.6344921580 1.7201375484 0.8597774830
C -0.8706451924 0.1379737436 -0.5301694662
H -0.8893504984 0.3299053803 -1.6047744004
C 0.5620325213 -0.1937358600 -0.1062319691
C -1.7634738543 -1.0823250537 -0.3108612275
H 1.1580534472 0.7118959437 -0.2375529946
H 0.5769662958 -0.4229413172 0.9613675217
C 1.1950681692 -1.3352979529 -0.8871852690
O -1.8536934543 -1.9565372604 -1.1664433178
H 1.1953975288 -1.0915043244 -1.9537227851
H 0.5982456093 -2.2419740102 -0.7860260443
C 2.6200753595 -1.6330285828 -0.4316485369
H 3.0089774549 -2.4815373592 -0.9951023233
H 2.6338526171 -1.8921065839 0.6247332596
N 3.5386980272 -0.5192816641 -0.5911304848
H 3.5643911845 -0.0996997146 -1.5073406083
C 3.7547191049 0.3655155233 0.4421826387
N 3.2687767908 0.1611749981 1.6132247821
N 4.5119209365 1.4685081517 0.0271752858
H 3.6245777151 0.8594489195 2.2594218629
H 5.2623018864 1.2194111785 -0.6003753066
H 4.8577291895 2.0148866679 0.8000155481
N -2.3698558231 -1.1296254616 0.8979639104
C -3.2121568801 -2.2346180284 1.2981496007
H -2.2745975978 -0.3182868255 1.4857399801
H -4.2368835704 -1.9073070574 1.4659544254
H -2.8357671955 -2.7021918096 2.2059384973
H -3.1977571408 -2.9596438998 0.4900976948
C -2.3674322015 2.1128952618 -0.0773894831
C -3.2751683106 1.6218276283 -1.1772773396
O -2.5591730176 3.1558327999 0.5296923554
H -4.1178943976 2.3003197034 -1.2470711933
H -2.7463544314 1.6052859526 -2.1298213151
H -3.6289605447 0.6108718654 -0.9826268970
