35
0 1
N 1.9200719328 -0.7678258858 -0.8572293143
H 1.5781755422 -1.6955270623 -1.0600454827
C 0.9715202618 0.3223442957 -0.8740508415
H 1.4334647540 1.2045113755 -1.3189946451
C -0.2334599556 -0.0732439435 -1.7379618750
C 0.4855167376 0.7853988294 0.4937830156
H 0.1757712395 -0.4674593705 -2.6694036796
H -0.7811360570 -0.8858069461 -1.2548368744
C -1.1925764148 1.0907147216 -2.0354205134
O 0.2090137535 1.9776153404 0.6619823993
H -1.3591077758 1.1569412832 -3.1115353052
H -0.7368289916 2.0343726522 -1.7319602470
C -2.5620687858 0.9656292902 -1.3749855642
H -3.0316354111 0.0230272293 -1.6476949293
H -3.1986841329 1.7769632786 -1.7326049737
N -2.5331273114 1.0098512853 0.0756790892
H -1.9393624918 1.7173092653 0.4881023288
C -2.7003004997 -0.1219265081 0.8282671858
N -2.8619786510 -1.2823292427 0.2939347327
N -2.6386677942 0.1511043311 2.2064643891
H -3.0840664326 -1.9655272044 1.0124666589
H -3.0256392083 -0.5962471710 2.7623358079
H -3.0670667456 1.0334566134 2.4481093351
N 0.3333768135 -0.1177786527 1.4888263041
C 0.3583040935 -1.5725857850 1.4354020901
H -0.1570380427 0.2839719712 2.2752432403
H 1.3714426849 -1.9643184404 1.3922106866
H -0.2299688366 -1.9575047993 0.6043726249
H -0.1067537301 -1.9296127509 2.3509068004
C 3.1327604664 -0.7580284813 -0.2189889857
C 3.6539719648 0.5985226771 0.1832684843
O 3.7455511647 -1.7973408364 -0.0119564462
H 4.6591154328 0.4720243904 0.5695631372
H 3.6688330031 1.2800058202 -0.6659076487
H 3.0251554235 1.0450584302 0.9528530160
