35
0 1
N -2.3553962914 -0.8453050727 -0.5485175606
H -2.3562776588 -1.4878801750 -1.3279236328
C -1.2219431157 -0.8769124203 0.3517201885
H -1.5088539795 -1.2114451590 1.3505653853
C -0.1882052718 -1.8538826345 -0.2234950863
C -0.5630888019 0.4872691779 0.5366897039
H -0.6908363163 -2.8135267996 -0.3572710997
H 0.0839162272 -1.4861705780 -1.2159727094
C 1.0753396575 -2.0171736439 0.6312405597
O 0.0408667674 0.7534458870 1.5794393536
H 1.1508733049 -3.0405758999 1.0005214008
H 1.0192055638 -1.3728823034 1.5060703319
C 2.3459080303 -1.6956168944 -0.1508498071
H 2.4498266918 -2.4133053260 -0.9658748809
H 3.2153207343 -1.8050460591 0.4982477433
N 2.3234051909 -0.3603420821 -0.7527182343
H 2.5276094569 -0.3552759062 -1.7414701703
C 3.0342683210 0.6851749081 -0.1712431015
N 3.6740563300 1.4912791787 -0.9431485776
N 2.9590495029 0.7007702441 1.2151333993
H 4.0367011777 2.2712396056 -0.4012271389
H 2.0051021998 0.6086716928 1.5540862697
H 3.4027599964 1.5156220487 1.6100065282
N -0.6630582644 1.3232345217 -0.5087586633
C 0.0787611993 2.5657446442 -0.5769962098
H -1.1663155126 0.9850805724 -1.3126090516
H 0.2230347396 2.9277555915 0.4367944256
H -0.4897344994 3.2981531527 -1.1434703843
H 1.0548039385 2.4198151497 -1.0404684635
C -3.6033870249 -0.3329705702 -0.2639673123
C -3.7115358170 0.4685437022 1.0078879620
O -4.5421707783 -0.5149505318 -1.0229244897
H -4.7355092438 0.8110317105 1.1046946345
H -3.4461216473 -0.1344437756 1.8752178123
H -3.0383198071 1.3239820442 0.9850108754
