35
0 1
N -2.6488526554 -0.5931197035 -0.0512737189
H -3.4255583622 0.0469623551 -0.0678570857
C -1.3588023007 -0.0813647676 0.3979818349
H -1.0955721974 -0.5336488188 1.3541703130
C -0.2530585058 -0.3914615947 -0.6148052594
C -1.4628539527 1.4169550582 0.6309232544
H -0.1999953431 -1.4754164258 -0.7130912494
H -0.5438543677 0.0098948396 -1.5908814720
C 1.0972524851 0.1672124442 -0.1916622888
O -1.0671435916 1.9609856911 1.6508883813
H 1.3659172262 -0.2185516820 0.7913768628
H 1.0622022275 1.2557983112 -0.1169629260
C 2.1863661550 -0.2238290078 -1.1781787109
H 1.9508693681 0.1808481916 -2.1634755495
H 2.2347088017 -1.3126202963 -1.2533270686
N 3.4831270653 0.3138469674 -0.7885995651
H 4.0540605032 0.6405490868 -1.5521380986
C 4.2131934182 -0.3869933018 0.1555676687
N 3.7034449123 -1.3943544816 0.7619599333
N 5.5068796543 0.1301575565 0.2975218411
H 4.3424564195 -1.7318808623 1.4760939026
H 5.9773103556 -0.2176716139 1.1179221351
H 5.5268565187 1.1389111617 0.2717744881
N -2.0395674196 2.1088558931 -0.3972792493
C -2.0533899732 3.5584543710 -0.3771720280
H -2.1272689875 1.6375802474 -1.2820465371
H -1.0733900829 3.9802410730 -0.6017149487
H -2.3415608171 3.8879293382 0.6160292010
H -2.7765386136 3.9202638395 -1.1022396277
C -2.9307610584 -1.9297370594 0.0261895642
C -4.3678627617 -2.2974704961 -0.2605608705
O -2.0825092667 -2.7639858738 0.3060588893
H -4.3792341173 -3.1630025567 -0.9166127938
H -4.8463406457 -2.5827748243 0.6745485247
H -4.9323770903 -1.4875130594 -0.7163187468
