35
0 1
N -2.1685675075 -1.1345153113 -0.5473343495
H -2.0091127935 -1.5378907433 -1.4593977526
C -1.0877192329 -0.3929163528 0.0717679487
H -0.7931423215 -0.8445805739 1.0204845063
C 0.1174995334 -0.4110243860 -0.8734859027
C -1.4559866967 1.0573155399 0.3913534548
H 0.2851453851 -1.4494361132 -1.1727280661
H -0.1430358311 0.1489810474 -1.7771820510
C 1.3953926109 0.1411868028 -0.2593050954
O -0.8549937497 1.6817045583 1.2586627362
H 1.6916626470 -0.4811678062 0.5871573976
H 1.2256873015 1.1461676557 0.1270524718
C 2.5319005036 0.1615774236 -1.2732410849
H 2.2879480321 0.8289338158 -2.1011887434
H 2.6659028690 -0.8316207322 -1.6988887919
N 3.8055486180 0.6074235538 -0.7139702874
H 3.7838376902 1.5814106141 -0.4462986900
C 4.4110681743 -0.1593853578 0.2819216134
N 4.9987828822 0.2636883090 1.3391665149
N 4.3429274466 -1.5291500640 0.0358676537
H 4.8495288039 1.2635982298 1.4464565810
H 4.9358957374 -2.0202188753 0.6882812545
H 4.5540382299 -1.7767239682 -0.9191523350
N -2.4299097397 1.5792768127 -0.3905723619
C -2.8908797120 2.9421486817 -0.2400812468
H -2.9094429050 0.9409985483 -1.0034195052
H -3.9133611540 2.9748648080 0.1329772805
H -2.8421507495 3.4728804984 -1.1885042059
H -2.2365629014 3.4272087239 0.4777173173
C -3.2657699788 -1.6573246499 0.1004973977
C -3.4297309656 -1.2538943970 1.5440199422
O -4.0470090047 -2.3939101767 -0.4810560324
H -4.3896977063 -1.6204431653 1.8897003740
H -2.6392747900 -1.6945228394 2.1512103146
H -3.3772227254 -0.1740581108 1.6709757429
