26
0 1
N -0.0023363193 0.8549785161 -0.6050883983
C 0.1785271862 -0.3514987668 0.1711076117
C 1.6258382136 -0.8548056944 0.2011232495
O 1.8891251640 -1.9780639460 0.6167667959
C -0.7447211551 -1.4656763301 -0.2949063941
C -2.1837259940 -1.1429528367 0.0517011869
O -2.4854551648 -0.4529343193 1.0152259708
N -3.1118844494 -1.6827737896 -0.7805182625
H -0.0796987116 0.7531229022 -1.6083526518
H -0.0877451057 -0.1324678727 1.2036833911
H -0.4564264045 -2.3846032039 0.2168500345
H -0.6252580174 -1.6370494940 -1.3668959737
H -2.8531756087 -2.3275261884 -1.5026129228
H -4.0809843654 -1.5928549534 -0.5303817175
N 2.5451577631 0.0406078013 -0.2202658033
H 2.1963991808 0.9267672625 -0.5455684370
C 3.9629740596 -0.2417927902 -0.1992560590
H 4.3845700638 -0.2030875375 -1.2018980496
H 4.4914508816 0.4667286160 0.4355238080
H 4.0875445415 -1.2428809390 0.2018210833
C -0.5025116468 2.0647006162 -0.1640971950
O -0.8246007375 2.9247307320 -0.9687242111
C -0.5828683733 2.2588193288 1.3268238186
H -1.3520605247 1.6084603988 1.7409581291
H -0.8396666125 3.2956748564 1.5121580171
H 0.3640491364 2.0237766314 1.8109359792
