26
0 1
N -0.6011632427 -1.0073141548 0.0682608573
C 0.1040978646 -0.0462885908 0.9019713676
C 0.1894175647 1.3585507950 0.2768801350
O 1.2686170819 1.9344821593 0.1122497469
C 1.5010114308 -0.5852502327 1.2076148433
C 2.2013708949 -1.0337723297 -0.0612553160
O 1.9403448736 -2.1247194940 -0.5699845006
N 3.1073777078 -0.1677487545 -0.5707406106
H -0.0284113951 -1.7206593562 -0.3686886245
H -0.4596084279 0.0575475031 1.8328737065
H 1.4060671893 -1.4627678978 1.8433903628
H 2.0669748630 0.1825707079 1.7265701821
H 2.9672602032 0.8044293006 -0.3338626148
H 3.4545394529 -0.3859149017 -1.4903666760
N -1.0074148887 1.8861660265 -0.0234395162
H -1.8243862257 1.3268451261 0.2110408356
C -1.1474664000 3.1999503803 -0.6124476995
H -0.1528202801 3.5825593287 -0.8172817624
H -1.7120369756 3.1444361818 -1.5408801101
H -1.6559856665 3.8793118882 0.0694357329
C -1.9470399325 -1.1038479324 0.0384634895
O -2.6842268663 -0.2831536376 0.5940480600
C -2.5012369377 -2.2795100700 -0.7222150633
H -1.7318126215 -2.8677175280 -1.2149681033
H -3.0468157546 -2.9118117563 -0.0250399543
H -3.2110035118 -1.9136117610 -1.4596737682
