26
0 1
N -0.1189376100 0.9103221079 -0.3367460208
C -0.0988071176 -0.3922126304 0.2994796103
C 1.2607482733 -1.0891852341 0.2769823736
O 1.4478077776 -2.0764232477 0.9785286646
C -1.0942318761 -1.3219190344 -0.4036787970
C -2.4842119820 -0.7337228196 -0.3697279906
O -2.7867882111 0.2405801343 -1.0550641070
N -3.3527961266 -1.3191857275 0.4877608047
H -0.9190889633 1.0809460720 -0.9364675641
H -0.3544114180 -0.2984508138 1.3574921321
H -1.0372933885 -2.2955695666 0.0776105689
H -0.8024455862 -1.4274478879 -1.4486686434
H -4.2722825900 -0.9260975836 0.5860465228
H -3.0853974212 -2.1004773776 1.0551040622
N 2.1498723033 -0.5920353534 -0.6075181549
H 1.9091138212 0.2863410773 -1.0347865892
C 3.5036062219 -1.0947377312 -0.6799975010
H 3.8468386668 -1.0961798566 -1.7113717356
H 4.1852463266 -0.4973863667 -0.0749862115
H 3.5004388477 -2.1105976992 -0.2975961052
C 0.3914886637 1.9821491540 0.3549266957
O 1.1017806943 1.8348304958 1.3389080451
C 0.0160654145 3.3346363677 -0.1974941500
H -0.8052085765 3.7341904565 0.3959026752
H -0.2979405713 3.2866671912 -1.2371848288
H 0.8625794275 4.0065258738 -0.0940817561
