26
0 1
N -1.3403409391 -0.2438826411 0.3669613738
C -0.0976499459 -0.5490146659 -0.3051452367
C 0.8995694333 -0.8930986687 0.8049218961
O 0.5850624697 -0.7554007815 1.9872071678
C 0.3624911846 0.6269118587 -1.1926658654
C 1.0958533278 1.6898881576 -0.4039245168
O 2.2933372315 1.9011110525 -0.5458051177
N 0.3173362907 2.3821912215 0.4732715198
H -1.2935263819 -0.3420441583 1.3739700015
H -0.2493559961 -1.4137990116 -0.9563391894
H -0.5304258493 1.0272029073 -1.6701823663
H 1.0349213979 0.2860247019 -1.9721485886
H 0.7926633566 2.9524716919 1.1520195650
H -0.5878840681 2.0133024488 0.7090760990
N 2.1129357199 -1.3523352605 0.4378889346
H 2.7444135017 -1.4606782811 1.2165110924
C 2.6574159228 -1.4674666740 -0.9010464778
H 1.8971501651 -1.8303787228 -1.5876259279
H 3.0489793827 -0.5164582200 -1.2591867960
H 3.4578299494 -2.2018401116 -0.8813976053
C -2.5238983274 -0.3719671842 -0.3030197076
O -2.5669178724 -0.5597011890 -1.5124194398
C -3.7645355970 -0.2375168804 0.5444150892
H -3.5472049650 0.0026923005 1.5819451246
H -4.3964194487 0.5365680288 0.1163758452
H -4.3158429429 -1.1742129187 0.4995041264
