26
0 1
N -1.2341683617 -1.0618344720 0.0895002753
C -0.0554619999 -0.2619489285 -0.1054106706
C 1.1490779005 -1.2049193005 -0.1094601492
O 0.9929957760 -2.4250939237 -0.0983795761
C 0.0693532189 0.8564068582 0.9539680193
C 0.5580683720 2.1004800537 0.2545183144
O 1.7556917744 2.3259074152 0.0775630159
N -0.4353941911 2.8874270688 -0.2165985418
H -1.0756717498 -2.0581907101 0.1533904290
H -0.1146896067 0.2068106954 -1.0929658896
H 0.7739678326 0.5776362761 1.7334044732
H -0.9090092521 1.0267645124 1.3918552644
H -0.1804963087 3.6223579761 -0.8543115429
H -1.3651780335 2.4937999497 -0.2678091863
N 2.3372865081 -0.5752357728 -0.1387617721
H 2.3496272216 0.4404812600 -0.0903336759
C 3.5889001011 -1.3030216601 -0.1523522025
H 4.1831242321 -1.0251659286 -1.0202226419
H 4.1643669777 -1.1019596135 0.7493394820
H 3.3578319156 -2.3622129837 -0.1993623886
C -2.4549988741 -0.5222056936 -0.1184262788
O -2.6027229424 0.6777235559 -0.3682857387
C -3.6247936300 -1.4647064983 -0.0119237269
H -4.3175397791 -1.0776402363 0.7311197327
H -4.1423472075 -1.4820659279 -0.9683357818
H -3.3304448938 -2.4752549717 0.2579827575
