26
0 1
N 1.6466118171 -0.0004099443 0.4600450765
C 0.3123160884 0.0320202047 -0.0886583951
C -0.4960036494 0.9755847368 0.7868841375
O -0.4353319705 0.8642936692 2.0121377338
C -0.3414620029 -1.3596186221 -0.0414580080
C -1.7814130924 -1.2749688866 -0.4917500490
O -2.0877743766 -0.9781057215 -1.6396198293
N -2.7054540403 -1.5364522060 0.4727617873
H 1.7240548559 0.1413774726 1.4547093961
H 0.3749132493 0.3554729958 -1.1235370712
H -0.2556090714 -1.7413509327 0.9749190367
H 0.2031164137 -2.0094869014 -0.7239893082
H -3.6695451848 -1.3568283664 0.2502004091
H -2.4334539703 -1.5618793757 1.4382808114
N -1.2907604468 1.8755466307 0.1728965259
H -1.7993093432 2.4662775121 0.8123722548
C -1.3595430700 2.1661360683 -1.2519938138
H -0.4379529351 2.6181565991 -1.6160233426
H -1.5808779250 1.2674338604 -1.8209808643
H -2.1691918723 2.8731787409 -1.4057797178
C 2.6982459775 -0.4510983687 -0.2773626611
O 2.5820621195 -0.7633142295 -1.4560992145
C 4.0142242855 -0.5303240040 0.4573693629
H 4.3081533849 -1.5753664687 0.5293179941
H 3.9745361959 -0.0994364961 1.4545701606
H 4.7689855632 -0.0154689669 -0.1310284117
