26
0 1
N -0.0913087139 0.7114393005 -0.5065840264
C 0.3185829870 -0.1615062605 0.5773808390
C 1.5057283479 -1.0018393093 0.0969773701
O 1.4204732884 -2.2139676097 -0.1018647894
C -0.8179664567 -1.0280042232 1.1382835448
C -1.8189298625 -1.4711591915 0.0831639229
O -2.9954721921 -1.1475053983 0.1412338781
N -1.2868808398 -2.1989796309 -0.9352408185
H -0.3145695755 0.2593828881 -1.3843775602
H 0.6885348555 0.4731623398 1.3828554784
H -1.3915413626 -0.4519661808 1.8596521090
H -0.3942899270 -1.8975962613 1.6410859385
H -0.3542259842 -2.5734308385 -0.8323801461
H -1.9287464555 -2.5931936673 -1.6010569923
N 2.6608818945 -0.3316753844 -0.1064710059
H 3.4196848023 -0.9166397090 -0.4191329248
C 2.9254655937 1.0664155902 0.1742845502
H 3.9124837560 1.3071635395 -0.2084412068
H 2.1995427682 1.7033602179 -0.3231417585
H 2.9194655492 1.2757488425 1.2443669544
C -0.7067178014 1.9368172077 -0.3638956098
O -1.2275137602 2.4896065272 -1.3179758315
C -0.6536200947 2.5622781635 1.0097100281
H -1.1985041489 1.9586778837 1.7339611381
H -1.1154526627 3.5408838316 0.9432989686
H 0.3720459949 2.6720783325 1.3606129499
