25
0 1
N -1.7602082291 0.5773473891 0.0922310905
H -1.9980634435 1.4914330398 -0.2638541657
C -0.3526664000 0.2799789751 0.1352573884
H -0.0856344300 -0.0881206865 1.1268175204
C -0.0091378216 -0.8068581589 -0.8878059777
C 0.3721389389 1.5958450018 -0.1584683407
H -0.0310611643 -0.4135353661 -1.9048701350
H -0.7733932768 -1.5820226246 -0.8213231689
C 1.3076417989 -1.4843469778 -0.6496800718
O -0.2302285052 2.5514259020 -0.6456108250
O 1.5373407229 -2.4411352823 -1.5675003971
O 2.0890705575 -1.2495754830 0.2512177974
N 1.6835692548 1.5940899691 0.1437697188
C 2.5414919596 2.7261212548 -0.1333168760
H 2.0729696114 0.7292444119 0.4916461731
H 1.9197939843 3.5223509893 -0.5294852156
H 3.0281348649 3.0704638567 0.7766584978
H 3.3032664607 2.4680867119 -0.8669772905
C -2.6784962287 -0.2899367104 0.5831983381
C -4.1108677201 0.1802529676 0.5337651074
O -2.3596103799 -1.3848717895 1.0396862637
H -4.4782588812 0.2736926185 1.5533677376
H -4.7090884097 -0.5784168733 0.0359244734
H -4.2293987240 1.1316776805 0.0217076374
H 2.3876064603 -2.8404098159 -1.3280952800
