7
-1 1
C -1.0062154630 -0.2035664040 0.0393235850
C 0.4871002280 0.1859238200 -0.0300612820
O 1.3015641890 -0.7577853830 0.0528578080
O 0.7249736960 1.4223319400 -0.1596349620
H -1.2236481420 -0.9409917540 -0.7335596330
H -1.2080995760 -0.6786385000 0.9999354490
H -1.6544106130 0.6615707660 -0.0826842210
