8
1 1
C 0.7447681510 -0.0822820530 -0.0191735540
N -0.7284386350 0.1121465430 0.0911611980
H -1.1277535990 -0.5261620120 0.7763740880
H -0.9479805200 1.0557741810 0.4034024110
H -1.2246632860 -0.0648475860 -0.8819038690
H 0.9327322200 -1.0934808160 -0.3620036540
H 1.2129256650 0.0748037570 0.9458759640
H 1.1320717110 0.6289650380 -0.7397884310
