10
1 1
C -0.1050816560 0.2824137410 0.0220744410
N -0.7852275910 -0.8206522910 -0.2889905070
N -0.7455854790 1.4215700070 0.2532469030
N 1.2192502630 0.2521461590 0.1034587520
H -1.7440374010 1.4799878480 0.1726858950
H 1.7274622910 -0.6012596210 -0.0388226450
H 1.7214700760 1.0971447580 0.3394975360
H -0.2160892110 2.2492923260 0.4910021120
H -1.7874723550 -0.8150924040 -0.3403009850
H -0.3123652180 -1.6848345790 -0.4808838460
