10
1 1
C -0.0226327810 0.1588893110 -0.0034911520
N -1.0342583370 -0.6975337910 0.1529483030
N -0.0720733630 1.3818218730 0.4879798030
N 1.0623280530 -0.2331429650 -0.6755540690
H -0.9205226200 1.7130043550 0.9121199150
H 1.2044310060 -1.1963696620 -0.9181762310
H 1.8268449530 0.4060074580 -0.7986178630
H -1.0491384950 -1.5763707010 -0.3317571200
H 0.7580412190 2.0140664470 0.4175778320
H -1.8514708320 -0.4380335530 0.6745141410
