10
1 1
C 5.0824252300 5.6941102130 0.4678168150
C 4.2196487100 4.9942940210 1.2675961780
N 3.9281184050 5.7972861000 2.3384205200
C 4.5773834610 6.9542196330 2.2220060010
N 5.2827092410 6.9010571780 1.0866035780
H 3.8036443920 4.0106227970 1.1554844360
H 5.5530835450 5.4350550310 -0.4620049580
H 4.5425045670 7.7781044650 2.9106880700
H 5.8724137110 7.6467270470 0.7458232010
H 3.3002943110 5.5546209660 3.1257223410
