7
-1 1
O -1.9125275900 -0.5156242600 -0.0686774100
H -1.6632671800 -1.0789497900 0.6677608600
H -1.1636330900 0.1772045900 -0.0639461100
O 1.9247264500 -0.5086526100 0.0528858800
H 1.5683020700 -1.1720697400 -0.5428613500
H 1.1801050400 0.1854666300 0.0541952100
F -0.0017892700 1.1165189900 0.0017644800
