19
-1 1
O -2.2135939500 -1.4932734600 0.1391232700
H -1.5617459600 -1.4123828000 -0.5849171400
H -2.5195061600 -0.5735837900 0.2290726000
O 0.1573640900 -0.7602131300 1.6884561500
H -0.6571479400 -1.2007430600 1.3916502300
H 0.1134597300 0.0784596000 1.1785454600
O 2.5784699100 1.3987776000 -0.1583196600
H 1.5845767700 1.4586051200 -0.1344149100
H 2.8329431100 1.6133651000 0.7430595400
O -2.5767057300 1.3964754700 0.1711093200
H -2.8464293300 1.6290322700 -0.7212841500
H -1.5831440300 1.4575408700 0.1327643100
O -0.1551838500 -0.7657274200 -1.6942446400
H 0.6593224200 -1.2045947100 -1.3951458300
H -0.1121251600 0.0752731600 -1.1880725400
O 2.2162642400 -1.4935337600 -0.1404399600
H 2.5220706800 -0.5739479800 -0.2310104100
H 1.5629185100 -1.4114178500 0.5821586700
F -0.0005778400 1.3405734500 -0.0064116400
