12
0 1
C -1.3940633000 0.0000000000 -2.4541524000
C -0.6970468000 1.2072378000 -2.4546277000
C 0.6970468000 1.2072378000 -2.4546277000
C 1.3940633000 0.0000000000 -2.4541524000
C 0.6970468000 -1.2072378000 -2.4546277000
C -0.6970468000 -1.2072378000 -2.4546277000
H -2.4753995000 0.0000000000 -2.4503221000
H -1.2382321000 2.1435655000 -2.4536764000
H 1.2382321000 2.1435655000 -2.4536764000
H 2.4753995000 0.0000000000 -2.4503221000
H 1.2382321000 -2.1435655000 -2.4536764000
H -1.2382321000 -2.1435655000 -2.4536764000
