13
0 1
O 1.3531168000 1.9382724000 0.4723133000
C 2.0369747000 0.7865043000 0.1495491000
H 1.7842846000 2.3487495000 1.2297110000
C 1.5904026000 0.0696860000 -0.9574153000
C 2.2417367000 -1.1069765000 -1.3128110000
C 3.3315674000 -1.5665603000 -0.5748636000
C 3.7696838000 -0.8396901000 0.5286439000
C 3.1224836000 0.3383498000 0.8960491000
H 0.7445512000 0.4367983000 -1.5218583000
H 1.8921463000 -1.6649726000 -2.1701843000
H 3.8330227000 -2.4811537000 -0.8566666000
H 4.6137632000 -1.1850101000 1.1092635000
H 3.4598854000 0.9030376000 1.7569489000
