12
0 1
C 1.3932178000 0.0362913000 -0.6332803000
C 0.7280364000 -1.1884015000 -0.6333017000
C -0.6651797000 -1.2247077000 -0.6332803000
C -1.3932041000 -0.0362972000 -0.6333017000
C -0.7280381000 1.1884163000 -0.6332803000
C 0.6651677000 1.2246987000 -0.6333017000
H 2.4742737000 0.0644484000 -0.6317240000
H 1.2929588000 -2.1105409000 -0.6317401000
H -1.1813229000 -2.1750081000 -0.6317240000
H -2.4742614000 -0.0644647000 -0.6317401000
H -1.2929508000 2.1105596000 -0.6317240000
H 1.1813026000 2.1750056000 -0.6317401000
