13
0 1
N 1.4327616000 0.3639703000 -0.0159508000
C 2.1154200000 -0.7803450000 0.1681099000
C 3.5237586000 -0.8016096000 0.1545027000
C 4.2185897000 0.3735783000 -0.0525929000
C 3.5099708000 1.5615014000 -0.2449763000
C 2.1280138000 1.4953324000 -0.2175374000
H 4.0459206000 -1.7361356000 0.3076883000
H 5.2999426000 0.3666009000 -0.0663349000
H 4.0110923000 2.5024313000 -0.4130052000
H 1.5339878000 2.3893837000 -0.3670565000
N 1.3883123000 -1.9083038000 0.4198149000
H 1.8694714000 -2.7812773000 0.2940385000
H 0.4089067000 -1.9079942000 0.1300860000
