15
0 1
N -3.9211729000 -0.0009646000 -1.5163659000
C -4.6136833000 0.0169051000 -0.3336520000
C -3.9917387000 0.0219348000 0.8663338000
C -2.5361367000 0.0074651000 0.8766724000
N -1.9256484000 -0.0110593000 -0.3638948000
C -2.5395897000 -0.0149474000 -1.5962357000
C -4.7106131000 0.0413373000 2.1738637000
O -1.8674730000 0.0112093000 1.9120833000
O -1.9416783000 -0.0291878000 -2.6573783000
H -4.4017172000 -0.0036078000 -2.4004924000
H -0.8838255000 -0.0216168000 -0.3784269000
H -5.6909220000 0.0269347000 -0.4227183000
H -4.4439282000 -0.8302573000 2.7695655000
H -4.4267056000 0.9186178000 2.7530256000
H -5.7883971000 0.0505530000 2.0247280000
