10
0 1
C -1.2471894000 -1.1718212000 -0.6961388000
C -1.2471894000 -1.1718212000 0.6961388000
N -0.2589510000 -1.7235771000 1.4144796000
C 0.7315327000 -2.2652221000 0.6967288000
C 0.7315327000 -2.2652221000 -0.6967288000
N -0.2589510000 -1.7235771000 -1.4144796000
H -2.0634363000 -0.7223199000 -1.2472797000
H -2.0634363000 -0.7223199000 1.2472797000
H 1.5488004000 -2.7128282000 1.2475604000
H 1.5488004000 -2.7128282000 -1.2475604000
