12
0 1
C -0.0210742000 1.5318615000 -1.3639345000
C -1.2746794000 0.9741030000 -1.6074097000
C -1.3783055000 -0.2256981000 -2.3084154000
C -0.2289426000 -0.8664053000 -2.7687944000
C 1.0247882000 -0.3035171000 -2.5312410000
C 1.1289996000 0.8966787000 -1.8299830000
H 0.0600740000 2.4565627000 -0.8093957000
H -2.1651002000 1.4654521000 -1.2405676000
H -2.3509735000 -0.6616122000 -2.4926698000
H -0.3103419000 -1.7955762000 -3.3172704000
H 1.9165847000 -0.7940845000 -2.8993942000
H 2.1000347000 1.3326757000 -1.6400420000
