15
0 1
N 1.2754606000 -0.6478993000 -1.9779104000
C 1.4130533000 -1.5536850000 -0.9550667000
H 2.4258769000 -1.8670780000 -0.7468778000
C 0.3575976000 -2.0239499000 -0.2530575000
C 0.4821292000 -3.0179494000 0.8521221000
H 0.1757705000 -2.5756065000 1.7986281000
H -0.1601691000 -3.8770412000 0.6639498000
H 1.5112443000 -3.3572767000 0.9513659000
C -0.9684711000 -1.5298112000 -0.5939792000
O -2.0029280000 -1.8396957000 -0.0199453000
N -0.9956916000 -0.6383870000 -1.6720420000
H -1.9014057000 -0.2501720000 -1.8985760000
C 0.0684702000 -0.1191762000 -2.3763759000
O -0.0397875000 0.7227006000 -3.2531083000
H 2.0853289000 -0.2760176000 -2.4454577000
