23
-2 1
O 0.8352760000 0.8207830000 -0.9481200000
S -0.0003310000 0.0007450000 -0.0003550000
O 0.4769150000 -1.4278010000 -0.0174480000
O -1.4433760000 0.0532220000 -0.4293520000
O 0.1295750000 0.5569600000 1.3934740000
H 1.3510950000 2.1536770000 1.4105270000
O 1.9182110000 2.7463160000 0.8874810000
H 1.7674340000 2.3099990000 0.0311890000
H -1.6531330000 1.1775500000 -2.0846510000
O -1.2070330000 1.7270640000 -2.7519890000
H -0.3102120000 1.6305300000 -2.3875210000
H -2.1290300000 -1.7923020000 -0.8479380000
O -1.9207200000 -2.7413010000 -0.8955520000
H -0.9948790000 -2.6619370000 -0.6074460000
H 1.0799490000 -2.0007520000 1.8195170000
O 1.1996630000 -1.7358930000 2.7477050000
H 0.8716370000 -0.8259440000 2.6422150000
H 2.2429150000 -0.3197150000 -1.8236910000
O 2.6300250000 -1.2084830000 -1.9046130000
H 2.0305420000 -1.6438060000 -1.2740920000
H -2.5861170000 0.8353160000 1.0210000000
O -2.6202430000 1.2108940000 1.9179590000
H -1.6681840000 1.1348540000 2.1017820000
