23
-2 1
O 2.0209110000 -1.2758410000 0.6468670000
S 0.9746320000 -0.4700680000 1.3407220000
O 1.4750420000 0.0285830000 2.6546450000
O -0.2620850000 -1.3195190000 1.5626010000
O 0.5796180000 0.7033610000 0.4648090000
H 0.8549760000 -0.8789620000 -2.1463890000
O 0.3186920000 -0.0697630000 -2.1693530000
H 0.4435410000 0.2807610000 -1.2543420000
H -1.0542770000 -1.8525710000 0.0677460000
O -1.3931750000 -2.0983260000 -0.8274260000
H -1.1156430000 -1.3297630000 -1.3528100000
H -0.7719790000 1.6610610000 1.1000200000
O -1.5147380000 2.1213820000 1.5614720000
H -1.9339090000 1.3813640000 2.0309850000
H -1.2977020000 0.4150580000 3.8683150000
O -1.9385020000 -0.1608230000 3.4203710000
H -1.3604700000 -0.6511490000 2.7869780000
H 1.6711120000 -2.3053160000 -0.7132410000
O 1.3651040000 -2.7935680000 -1.5165860000
H 0.4105890000 -2.8494650000 -1.3383460000
H 0.6747160000 1.2882400000 3.5513600000
O 0.0960790000 1.9528900000 3.9995180000
H -0.4032260000 2.2963400000 3.2387820000
