23
-2 1
O 0.0930300000 -1.0949970000 0.0424990000
S 1.1144550000 -0.1875460000 0.6861540000
O 1.9378400000 -0.9891040000 1.6622940000
O 0.3914510000 0.9065650000 1.4354800000
O 1.9943170000 0.4085870000 -0.3619520000
H 1.1483850000 -2.6667230000 1.8824020000
O 0.3942610000 -3.2840280000 1.7724640000
H -0.0602530000 -2.7530860000 1.0906710000
H 1.3445880000 1.6432830000 -1.4153140000
O 0.8555410000 2.2870660000 -1.9848600000
H 0.1420380000 2.5603840000 -1.3839470000
H -0.6972990000 -0.4264430000 -1.3827820000
O -1.1177000000 0.0636460000 -2.1313650000
H -0.4240100000 0.7052110000 -2.3567500000
H -0.1160720000 -1.6531370000 4.4003560000
O -0.4787170000 -2.5572210000 4.4472430000
H -0.3006720000 -2.8839560000 3.5457490000
H -1.6307410000 1.5056200000 -0.7438010000
O -1.4353740000 2.2322790000 -0.1291840000
H -0.8136460000 1.7904960000 0.4997420000
H 1.4811000000 -0.4817830000 3.4046950000
O 0.8861960000 -0.0235250000 4.0350960000
H 0.4350960000 0.5172500000 3.3584340000
