23
-2 1
O -0.4085710000 -0.0635060000 -0.6552070000
S -0.8505430000 -0.6679540000 0.6624060000
O -1.2926320000 0.4397220000 1.5829550000
O 0.3353550000 -1.3801460000 1.2754970000
O -1.9648680000 -1.6274040000 0.4365660000
H 1.5393950000 -1.8445550000 -0.1587260000
O 1.8186930000 -1.6248100000 -1.0707910000
H 1.0406270000 -1.0573220000 -1.2664790000
H 2.9204710000 0.2007920000 1.4810760000
O 2.4950640000 -0.0446240000 2.3220540000
H 1.6958540000 -0.5369890000 2.0147960000
H -3.5170010000 -1.0754150000 1.3909480000
O -3.9896060000 -0.4581820000 1.9849080000
H -3.2378040000 0.1463400000 2.1124520000
H 1.3552250000 1.4973420000 2.5943180000
O 0.6341790000 2.1478090000 2.5013030000
H -0.1149430000 1.5625880000 2.2310830000
H 2.9499190000 -0.1674070000 -0.6852950000
O 3.3812040000 0.6598360000 -0.3891330000
H 2.6342610000 1.2970810000 -0.4119630000
H 0.4657750000 1.4663150000 -0.4941770000
O 1.0563020000 2.2443570000 -0.3427570000
H 0.9349490000 2.3936010000 0.6146210000
