23
-2 1
O -1.0390840000 -0.9764920000 0.3188950000
S 0.2919300000 -1.1660250000 1.0179800000
O 0.4694020000 -2.5925430000 1.4011910000
O 0.3060710000 -0.2888050000 2.2505070000
O 1.3962670000 -0.7327420000 0.0895650000
H -2.4544160000 1.7589250000 1.6629640000
O -2.2978310000 2.5830310000 1.1586510000
H -1.9623040000 2.2359610000 0.3033760000
H -0.4454280000 2.6278890000 1.8568310000
O 0.4738730000 2.4494060000 2.1241310000
H 0.4837030000 1.4638160000 2.1884350000
H -2.2660940000 -0.4178190000 1.5987280000
O -2.4544040000 0.0436180000 2.4457970000
H -1.5292610000 0.0222990000 2.7645850000
H 1.5885700000 0.9609520000 -0.3133010000
O 1.5719920000 1.9333380000 -0.4890270000
H 1.3098010000 2.2764810000 0.3857400000
H -0.2464530000 1.6548240000 -1.0608360000
O -1.1775210000 1.3659250000 -1.1176050000
H -1.1325430000 0.4802190000 -0.6811870000
H 2.6597980000 -2.2980470000 -0.2399690000
O 2.8064000000 -3.2323690000 -0.0111290000
H 2.0224020000 -3.3139400000 0.5683600000
