23
-2 1
O 0.3925660000 -0.4169090000 -0.1577540000
S 0.4704210000 0.5455270000 1.0018030000
O -0.8989600000 0.6846520000 1.6117670000
O 0.9410080000 1.8810800000 0.5028370000
O 1.4290220000 0.0204100000 2.0332280000
H 1.3035510000 -1.6712320000 2.5239170000
O 1.1012020000 -2.6089270000 2.7557220000
H 0.6476380000 -2.9062780000 1.9484340000
H 2.9099270000 1.3503960000 2.3494550000
O 3.2632670000 2.2189520000 2.0883720000
H 2.5670350000 2.4188530000 1.4345770000
H -0.7829150000 -1.9038120000 3.2272760000
O -1.6677170000 -1.5566780000 3.0272170000
H -1.4492300000 -0.7098440000 2.5697010000
H -1.9171690000 1.9074440000 -1.0434130000
O -2.5933620000 1.9301750000 -0.3479950000
H -2.1022860000 1.5223490000 0.3942650000
H -0.3594100000 -1.9764420000 0.1833570000
O -0.7626680000 -2.8216710000 0.4984450000
H -1.3379410000 -2.5016340000 1.2129640000
H -0.0724960000 0.7107650000 -1.7375100000
O -0.1306380000 1.6329980000 -2.0512790000
H 0.3049690000 2.0354810000 -1.2712460000
