23
-2 1
O 1.4223830000 -1.4217060000 -0.4175740000
S 0.5621450000 -0.3865900000 0.2424490000
O -0.8907100000 -0.7079500000 -0.0031250000
O 0.8806030000 0.9758930000 -0.2804760000
O 0.8148930000 -0.4100070000 1.7416230000
H 1.0253920000 1.3294460000 2.4788290000
O 0.7977580000 2.1689610000 2.9326770000
H 0.2839170000 2.6158060000 2.2318440000
H -1.5350990000 2.3838020000 0.8834330000
O -0.7662410000 2.9425880000 0.6628860000
H -0.1707680000 2.2823530000 0.2297200000
H -0.5626780000 -0.3166950000 2.9779570000
O -1.1062470000 0.1349410000 3.6614080000
H -0.6124350000 0.9728490000 3.7031430000
H -2.3394160000 0.6644850000 2.2134850000
O -2.6823270000 0.8719640000 1.3262310000
H -2.0990640000 0.2997270000 0.7695510000
H -1.0530830000 -2.2000420000 -1.3116180000
O -0.5715650000 -2.8567720000 -1.8466920000
H 0.3183160000 -2.5975690000 -1.5436140000
H 2.3636080000 -1.7077450000 2.1739200000
O 2.9715250000 -2.3352340000 1.7482880000
H 2.6235310000 -2.2162920000 0.8427960000
