7
0 1
N -0.4527300000 0.0000000000 0.0000000000
F 0.1364360000 1.2300120000 0.0000000000
F 0.1364360000 -0.6150060000 -1.0652220000
F 0.1364360000 -0.6150060000 1.0652220000
C -4.8432230000 0.0000000000 0.0000000000
N -3.6619040000 0.0000000000 0.0000000000
H -2.6579300000 0.0000000000 0.0000000000
