7
0 1
N -0.3172580000 0.0000000000 0.0000000000
F 0.2768940000 1.2300960000 0.0000000000
F 0.2768940000 -0.6150480000 -1.0652950000
F 0.2768940000 -0.6150480000 1.0652950000
N -5.0439990000 0.0000000000 0.0000000000
C -3.8724480000 0.0000000000 0.0000000000
H -2.8034560000 0.0000000000 0.0000000000
