7
0 1
N 0.2913310000 1.6671630000 0.0000000000
F -0.5005100000 1.3362790000 -1.0641870000
F -0.5005100000 1.3362790000 1.0641870000
F 0.2049900000 3.0427790000 0.0000000000
N 0.4945530000 -1.5748930000 0.0000000000
C 0.2031960000 -2.7093040000 0.0000000000
H -0.0619800000 -3.7439980000 0.0000000000
