7
0 1
C -0.0292230000 -0.3043340000 -0.0441390000
H -1.0139630000 0.1406250000 -0.1503900000
H -0.0611900000 -1.0864630000 0.7083510000
H 0.6783040000 0.4596560000 0.2625350000
H 0.2860770000 -0.7245430000 -0.9944030000
Cl -2.1902853880 -2.6366849230 -0.9817031340
Cl -3.4927143880 -4.0434069230 -1.5462461340
