10
0 1
C 0.0059186500 -0.0034965270 1.8538789930
F -1.1725428550 0.6748175670 1.6145874880
H 0.8307098430 0.5460482890 1.4079627890
H -0.0560580410 -0.9937478230 1.4103553800
H 0.1560780350 -0.0883287390 2.9270690550
C 0.0171286820 -0.0097674810 -1.6803039420
H -0.0632416160 0.0356684470 -2.7618038540
H -0.8416869270 -0.5347361750 -1.2742676710
H 0.9278699260 -0.5353777640 -1.4094314080
H 0.0427302340 0.9969967500 -1.2756406250
