10
0 1
C -0.0000285090 -0.0004619290 2.1581490220
Cl -1.4540637340 0.8387773030 1.6162350120
Cl 1.4541445310 0.8386597270 1.6162085150
Cl -0.0000874000 -1.6797950340 1.6178029380
H 0.0000056960 0.0002673250 3.2393059490
C -0.0000230950 0.0004619190 -1.9003049720
H 0.0000245930 -0.0014070920 -2.9860610260
H -0.8855002770 -0.5102720860 -1.5351734510
H 0.8856233430 -0.5101218030 -1.5351370230
H -0.0000932380 1.0236383150 -1.5377927730
