12
0 1
F -1.9140740310 -1.1712080270 -0.1106727090
H -2.1806647310 1.3989383080 -0.4093753690
C 0.3734465980 -0.7768563180 0.2130484340
C -0.9011055530 -0.2957135110 -0.0383421680
C -1.1785908410 1.0510758400 -0.2153173490
C -0.1112153050 1.9305881580 -0.1277252540
C 1.1874384750 1.5173179040 0.1234824840
C 1.3942096630 0.1565847120 0.2903670810
F -0.3466651860 3.2423284650 -0.2884200340
H 2.0004117880 2.2228561410 0.1892547240
H 0.5595389290 -1.8283336560 0.3602859180
F 2.6390061910 -0.2740213550 0.5412916430
