24
0 1
F -1.9140740310 -1.1712080270 -0.1106727090
H -2.1806647310 1.3989383080 -0.4093753690
C 0.3734465980 -0.7768563180 0.2130484340
C -0.9011055530 -0.2957135110 -0.0383421680
C -1.1785908410 1.0510758400 -0.2153173490
C -0.1112153050 1.9305881580 -0.1277252540
C 1.1874384750 1.5173179040 0.1234824840
C 1.3942096630 0.1565847120 0.2903670810
F -0.3466651860 3.2423284650 -0.2884200340
H 2.0004117880 2.2228561410 0.1892547240
H 0.5595389290 -1.8283336560 0.3602859180
F 2.6390061910 -0.2740213550 0.5412916430
H -1.9827279010 -2.2297108090 3.3027515920
H -2.4494893950 0.1936735630 3.1234905460
C 0.1275810290 -1.9596028140 3.6146224710
C -1.1757380520 -1.5158191370 3.3959688390
C -1.4384297300 -0.1506039050 3.2944621350
C -0.3988793840 0.7705561760 3.4122579130
C 0.9041597260 0.3259673810 3.6302720760
C 1.1678303040 -1.0390332510 3.7319699400
H -0.6029550980 1.8298710890 3.3326907460
H 1.7114813640 1.0402793310 3.7201249560
H 0.3314183270 -3.0188521940 3.6962106660
H 2.1793550460 -1.3829191740 3.8995127050
