24
0 1
F -2.2683284680 -1.9582028890 -0.3230250920
F -2.7036905850 0.7255503830 -0.2531190400
C 0.0399704160 -1.6206490620 0.0006275290
C -1.2467145680 -1.1223314570 -0.1581889560
C -1.4689606320 0.2482816160 -0.1234482230
C -0.4048431760 1.1201107250 0.0683217880
C 0.8828691600 0.6223035530 0.2232399940
C 1.1041642810 -0.7488420520 0.1922459860
F -0.6201577410 2.4307327220 0.1130601070
F 1.9012322880 1.4564241700 0.3993774830
F 0.2508215280 -2.9338364850 -0.0101691250
F 2.3332238550 -1.2273905820 0.3547826790
H -1.7192656220 -1.3130705990 3.2351146800
H -2.1171204190 1.1315663860 3.2508070860
C 0.4094780830 -1.1259798900 3.4767744800
C -0.8870136070 -0.6300372280 3.3420898370
C -1.1111904590 0.7463967880 3.3527906750
C -0.0394178160 1.6264426780 3.4996155510
C 1.2563711490 1.1301007360 3.6348405230
C 1.4811085710 -0.2457854310 3.6234792260
H -0.2136501300 2.6937669130 3.5073705580
H 2.0875827060 1.8125938250 3.7464204580
H 0.5836309250 -2.1937758540 3.4706892890
H 2.4863803940 -0.6307850670 3.7270954690
