9
0 1
C 0.2280873680 -0.0060273080 -0.1035120240
Cl 1.8088844520 0.6328066870 0.2914649940
F 0.3319593170 -1.2501325040 -0.5554963970
F -0.5511677780 -0.0133394500 0.9694462080
F -0.3509218150 0.7333357570 -1.0396515300
O 4.6887822280 1.1926941650 0.7886210150
C 5.2366125110 0.1621094800 0.4643363900
H 6.3275646440 0.0399374850 0.5296234040
H 4.6692492110 -0.7026656760 0.0883929320
