9
0 1
C 0.0923484170 -0.0478994430 -0.0841806090
Br 1.8502951740 0.4017566020 0.5412153660
F -0.0412484240 -1.3652315690 -0.1868344370
F -0.8301221970 0.4034653070 0.7561547160
F -0.1276850370 0.4896065790 -1.2783130380
O 4.6955780430 0.8450651220 1.1917730390
C 5.3851583960 0.2262444320 0.4104378930
H 6.4827423290 0.2441304520 0.4683487110
H 4.9458214550 -0.3826805770 -0.3936926030
