10
0 1
O -3.7850376090 0.0008669820 -3.6416195780
C -4.9425046390 0.0304727440 -3.2625262170
C -5.2682785220 0.0307631810 -1.7848603520
C -6.0748137890 0.0675704010 -4.2661021340
H -5.9494257090 0.9441152240 -4.8993320130
H -5.9980040940 -0.8073012930 -4.9093257670
H -7.0563011330 0.0921284530 -3.8035119470
H -6.3343736550 0.0588802890 -1.5830559780
H -4.8342928730 -0.8589562930 -1.3316130970
H -4.7861313980 0.8898818390 -1.3213750040
