13
0 1
N -4.4036278580 0.0033560330 3.8943496350
C -5.2317176390 -1.0742137940 3.3887851720
C -4.1140281460 -0.2031313370 5.3000148130
C -5.0649998810 1.2790204490 3.6999677760
H -5.0272409490 -0.2200599960 5.9169810220
H -3.5939982320 -1.1505208090 5.4323956580
H -3.4703634120 0.5962982640 5.6635096010
H -6.0265029250 1.3374417150 4.2356742710
H -4.4241882010 2.0831324500 4.0580083480
H -5.2541027810 1.4366967130 2.6393807670
H -6.2016759970 -1.1354115170 3.9087112330
H -5.4215112160 -0.9243134350 2.3271820750
H -4.7151559720 -2.0243304120 3.5147931120
