12
0 1
C -0.2239130000 0.0021090000 0.1274040000
C -0.2295540000 0.0012650000 1.5205720000
C 0.9660660000 -0.0021000000 2.2357290000
C 2.1764170000 -0.0046360000 1.5458880000
C 2.1940950000 -0.0038180000 0.1526230000
C 0.9921790000 -0.0004490000 -0.5522740000
Br -1.8692370000 0.0046690000 2.4461860000
H 0.9465340000 -0.0027340000 3.3162520000
H 3.1047600000 -0.0072480000 2.1008040000
H 3.1354630000 -0.0057890000 -0.3787060000
H 0.9968800000 0.0002050000 -1.6338170000
H -1.1590290000 0.0047150000 -0.4143030000
