18
0 1
C -0.1898331760 -0.6453964350 0.0698077610
C 1.1216363240 -0.3540655760 0.4390965140
C 1.4865209530 0.9625726320 0.7121072250
C 0.5493293900 1.9892093240 0.6178689560
C -0.7576271350 1.6818626300 0.2468569080
C -1.1381904600 0.3705518160 -0.0285823250
Br -2.0384627780 3.0704598410 0.1151654290
H 1.8529352450 -1.1464346990 0.5141192040
H 0.8250487230 3.0121769890 0.8293854720
H 2.5022597690 1.1964335560 1.0003173330
H -2.1571401870 0.1516081610 -0.3131814710
H -0.4808204870 -1.6649836310 -0.1429184160
S -4.1574434720 5.7295843770 -0.8787611290
H -4.8237914260 4.7960894660 -1.5634333380
C -2.8283385200 5.9705930530 -2.0911895150
H -2.1675772930 6.7223566390 -1.6686218150
H -2.2649548140 5.0548358990 -2.2401984990
H -3.2185249040 6.3374477140 -3.0350870580
