9
0 1
O -0.7780736260 0.2059375670 -0.0037441670
H 0.2046217700 0.3061500370 -0.0052502470
C -1.0646730430 -1.0998652650 -0.0000376260
Cl -2.8181497150 -1.2880731310 0.0023401200
Cl -0.3885547920 -1.9461407520 -1.4474227630
Cl -0.3854611070 -1.9386125210 1.4502991920
O 1.9497947910 0.3777358790 -0.0072307760
H 2.3200414190 -0.0823161230 -0.7654763820
H 2.3210481060 -0.0791359320 0.7524865500
