8
0 1
F 0.3247382310 -0.0000961720 0.3675132430
H 0.1063565990 -0.0000156060 1.2745355950
O -0.1672355910 0.0001455570 2.9430643290
H -1.0109691510 -0.0000398840 3.3990331540
C 0.8819953300 0.0000188210 3.9067915380
H 1.8133853230 0.0000598380 3.3510662640
H 0.8495257040 0.8891688100 4.5346164890
H 0.8494951140 -0.8892610440 4.5344308090
