7
0 1
N 0.0520117320 0.0475623910 2.8734526430
H 1.0068262000 0.0801634330 3.2059330850
C -0.6238162690 -1.1462370960 3.3977884530
H -1.6466835610 -1.1601406080 3.0322744930
H -0.1248062970 -2.0306393280 3.0119679910
H -0.6418163320 -1.2031004480 4.4866124490
H -0.3970888500 0.8831583890 3.2245957910
