11
0 1
H 0.8551713350 -0.0000081190 -0.5887862610
O 0.2715460700 0.0000163570 0.1755925080
C 1.0840504480 0.0000018070 1.3352519900
H 0.4178316080 -0.0000024860 2.1929847640
H 1.7184895660 -0.8863129460 1.3980355250
H 1.7184985540 0.8863092360 1.3980504110
F 1.1258571540 0.0000041990 -2.5615761970
C -0.1846373330 -0.0000014530 -3.0254157830
H -0.1669285810 -0.0000018090 -4.1109780640
H -0.6860980660 -0.8885800710 -2.6547370040
H -0.6861051190 0.8885733380 -2.6547374290
