8
0 1
B -0.8788938588 0.0000000000 0.0000000000
B 0.8788938588 0.0000000000 0.0000000000
H 0.0000000000 0.0000000000 0.9752214687
H 0.0000000000 0.0000000000 -0.9752214687
H -1.4523452926 1.0396591157 0.0000000000
H -1.4523452926 -1.0396591157 0.0000000000
H 1.4523452926 -1.0396591157 0.0000000000
H 1.4523452926 1.0396591157 0.0000000000
