7
-1 1
C -0.5793772810 -0.3171888200 0.0000000000
C 0.7709336190 0.4515749800 0.0000000000
O 1.7942062880 -0.2779952420 0.0000000000
O 0.6972891250 1.7055246250 0.0000000000
H -0.6266503900 -0.9644839970 -0.8801177080
H -1.4297499720 0.3670534520 0.0000000000
H -0.6266503900 -0.9644839970 0.8801177080
