8
0 1
C 0.5570252570 0.1765843440 0.0000000000
O 1.2820567880 1.1393324660 0.0000000000
O 1.0333413940 -1.0920200470 0.0000000000
H 1.9960037140 -1.0148448930 0.0000000000
C -0.9446095290 0.2019647030 0.0000000000
H -1.2871040560 1.2318330660 0.0000000000
H -1.3183572850 -0.3214243200 -0.8798386270
H -1.3183572850 -0.3214243200 0.8798386270
