10
1 1
C 0.0000000000 0.0000000000 0.0115787070
N -1.1516634580 0.0000000000 -0.6534663900
N 1.1516634580 0.0000000000 -0.6534663900
N 0.0000000000 0.0000000000 1.3417215840
H 1.1737766000 0.0000000000 -1.6581906840
H -0.8593434340 0.0000000000 1.8627757510
H 2.0317905010 0.0000000000 -0.1687733220
H -2.0317905010 0.0000000000 -0.1687733220
H -1.1737766000 0.0000000000 -1.6581906840
H 0.8593434340 0.0000000000 1.8627757510
