13
1 1
C 0.0000000000 0.0000000000 -0.8699846300
N 0.0000000000 0.0000000000 -2.2029291180
N 0.0000000000 -1.1457549580 -0.1973878670
N 0.0000000000 1.1457549580 -0.1973878670
H 0.0000000000 -2.0275053250 -0.6771657100
H 0.0000000000 2.0275053250 -0.6771657100
H 0.0000000000 -1.1232220610 0.8140080700
H 0.0000000000 0.8595618440 -2.7206704290
H 0.0000000000 -0.8595618440 -2.7206704290
H 0.0000000000 1.1232220610 0.8140080700
O 0.0000000000 0.0000000000 2.4900278930
H 0.7616372810 0.0000000000 3.0770153650
H -0.7616372810 0.0000000000 3.0770153650
