17
1 1
C -0.0263292380 0.1626830220 -0.0015742820
N -1.0344320250 -0.7038801110 0.1575653800
N -0.0677895570 1.3881043900 0.4847238840
N 1.0591898640 -0.2321117340 -0.6738608370
H -0.9109098880 1.7253114720 0.9173688950
H 1.2000736500 -1.1951120910 -0.9191897190
H 1.8257532930 0.4057825620 -0.8015469190
H -1.0429206570 -1.5789133520 -0.3349771670
H 0.7655665860 2.0142654780 0.4126632920
H -1.8579140620 -0.4480881580 0.6716427620
N 2.1396473420 3.1520208540 0.3641139220
C 1.6262624810 4.2536031730 1.2098705570
H 2.3710500580 3.5246209630 -0.5509447550
H 2.3304370090 5.0796575120 1.3094446160
H 0.7039212120 4.6369630510 0.7746429000
H 1.4043960360 3.8660044960 2.2036582390
H 3.0187448930 2.8267884740 0.7525702380
