16
1 1
C -1.5222787370 -0.3378350020 0.0000000000
N -2.8558167200 -0.3577954020 0.0000000000
N -0.8469089830 -0.3269548400 -1.1438661670
N -0.8469089830 -0.3269548400 1.1438661670
H -1.3208309660 -0.3435601490 -2.0283735440
H -1.3208309660 -0.3435601490 2.0283735440
H 0.1666028610 -0.3281381820 1.1073095220
H -3.3744328150 -0.3542918010 0.8596230660
H 0.1666028610 -0.3281381820 -1.1073095220
H -3.3744328150 -0.3542918010 -0.8596230660
O 1.7852128120 -0.2599190860 0.0000000000
C 2.6002168940 0.9347665920 0.0000000000
H 2.3717559270 -1.0210433910 0.0000000000
H 3.2222979260 0.9726649380 0.8928878890
H 3.2222979260 0.9726649380 -0.8928878890
H 1.9157477780 1.7794223570 0.0000000000
