7
0 1
N 0.4340017260 -0.8058328450 0.0000000000
H 0.0828781960 -1.3020861830 0.8090186990
H 0.0828781960 -1.3020861830 -0.8090186990
C -0.0672212340 0.5713452470 0.0000000000
H 0.3170019750 1.0892570870 -0.8787162650
H -1.1591948340 0.6634807910 0.0000000000
H 0.3170019750 1.0892570870 0.8787162650
