13
0 1
N -0.8908645530 -0.0482428350 -0.0377251940
H 0.1008011320 -0.2568577610 -0.0751072030
H -1.3729532090 -0.9355500840 0.0280078260
C -1.1765311730 0.7606535090 1.1480551960
H -2.2452910300 0.9732473350 1.1953719500
H -0.8794675210 0.3033597680 2.1001899860
H -0.6604485870 1.7179013910 1.0597161410
O 2.2879474430 -0.0440272950 0.0262427290
H 2.5639836950 0.3186689460 -0.8166874260
C 2.6710312910 0.8666613710 1.0515815120
H 2.3438721410 0.4317367670 1.9936149130
H 3.7546960990 1.0021647840 1.0863693520
H 2.1889144970 1.8401649840 0.9301824950
