8
1 1
C 0.0000116270 0.0000000000 0.7652669820
N 0.0000089770 0.0000000000 -0.7412418270
H -0.4754522630 -0.8234961720 -1.1124933120
H -0.4754522630 0.8234961720 -1.1124933120
H 0.9509041290 0.0000000000 -1.1125009290
H 0.5158140910 0.8934253140 1.1026893460
H -1.0316483880 0.0000000000 1.1026977040
H 0.5158140910 -0.8934253140 1.1026893460
