12
1 1
C 0.6893795460 -0.1782967870 0.3227652720
N -0.7365056880 0.2015430770 0.0547738700
H -1.3810679500 -0.4527041220 0.4953809430
H -0.9463136130 1.1291508780 0.4193110800
H -0.9157402500 0.1994736640 -0.9688093290
H 0.8572433990 -1.1667019210 -0.0927755290
H 1.3289638230 0.5475506480 -0.1691943540
H 0.8599169040 -0.1767934190 1.3949715960
O -0.6910586020 -0.0053820300 -2.6720020880
C -1.1513234170 0.1086342180 -3.7932431200
H -0.5666777060 -0.1947612990 -4.6692404270
H -2.1564891070 0.5151674570 -3.9600516030
