15
1 1
C 0.7463822520 -0.0825155920 -0.0196469000
N -0.7304668350 0.1124204250 0.0904749020
H -1.1284674550 -0.5267586600 0.7761489270
H -0.9484323660 1.0561954400 0.4035229010
H -1.2252594800 -0.0642782510 -0.8794234360
H 0.9330813140 -1.0962641740 -0.3631161430
H 1.2127187940 0.0754148610 0.9482030010
H 1.1333307590 0.6309007020 -0.7419025480
N -1.8712002370 -0.3219658620 -2.3430302390
C -1.0216310210 0.2046815300 -3.4393328980
H -2.0389927090 -1.3108000590 -2.5032732400
H -1.4667904270 0.0474818840 -4.4209702240
H -0.8699093270 1.2729011680 -3.2921641630
H -0.0537740880 -0.2934131470 -3.4113636880
H -2.7885466300 0.1103467010 -2.4024543730
