9
0 1
O -0.7819383490 0.0547758360 0.0000000000
H 0.1808436200 0.0350644090 0.0000000000
C -1.2381275980 -1.2862159790 0.0000000000
H -2.3258628620 -1.2595156130 0.0000000000
H -0.9063605590 -1.8310855060 -0.8884041150
H -0.9063605590 -1.8310855060 0.8884041150
O 2.1275314670 -0.0537790640 0.0000000000
H 2.5354448650 0.3645845920 -0.7600170660
H 2.5354448650 0.3645845920 0.7600170660
