13
0 1
O -0.7027887600 0.0426324470 0.0069951350
H 0.2680874870 0.0768129360 0.0013554630
C -1.0796277430 -1.3184822140 0.0014951430
H -2.1680806970 -1.3615763810 0.0058636650
H -0.7217722510 -1.8439131410 -0.8918292720
H -0.7145633790 -1.8526271540 0.8867382800
N 2.2074126470 -0.0357989240 -0.0034698920
H 2.5684149680 0.4749810150 0.7929450910
H 2.5683687910 0.4311824740 -0.8263307480
C 2.6793727370 -1.4260786550 0.0342847910
H 2.2853701440 -1.9584701310 -0.8310772580
H 3.7684119830 -1.5295492960 0.0372659910
H 2.2849946630 -1.9106119940 0.9271295490
