18
0 1
O -0.2060026690 -0.2172981660 -1.0279439590
H 0.7143988850 -0.3879906660 -0.7778357250
C -1.0260012920 -0.7419647040 -0.0027253340
H -2.0615604960 -0.5366787140 -0.2709100070
H -0.9056797260 -1.8242595860 0.1062980420
H -0.8227755270 -0.2737306700 0.9672421930
C 1.9674011050 1.9070442820 0.4328965430
H 2.4755129810 2.8711761740 0.3990710680
H 1.5578280430 1.7578620950 1.4330291460
H 1.1373783730 1.8954440260 -0.2714931000
C 2.8883172540 0.7505045530 0.1176438640
O 2.4636258840 -0.3678886980 -0.1688391590
N 4.2154708050 1.0060259070 0.1791064220
H 4.5161721080 1.9192514970 0.4667079340
C 5.2020765170 -0.0350513000 -0.0478424870
H 4.8474507030 -0.6856246060 -0.8440565580
H 6.1423357990 0.4254776550 -0.3441581720
H 5.3610768490 -0.6398058910 0.8465687120
