14
-2 1
S 1.1556950000 0.0031110000 -0.0022740000
O 2.6420660000 0.0044440000 -0.0044660000
O 0.6288310000 -1.4056460000 -0.1781230000
O 0.6253640000 0.8596350000 -1.1328300000
O 0.6290800000 0.5537290000 1.3062620000
O -1.9744540000 0.1065080000 1.7287350000
H -0.9910480000 0.2678550000 1.6330280000
H -2.0999290000 -0.6233940000 1.1004080000
O -1.9792740000 1.4375520000 -0.9563680000
H -2.1036250000 1.2582490000 -0.0099690000
H -0.9951740000 1.2769080000 -1.0487290000
O -1.9748330000 -1.5540830000 -0.7674790000
H -2.1039090000 -0.6447050000 -1.0831880000
H -0.9907190000 -1.5491480000 -0.5823530000
