14
-2 1
S -0.7167810000 -0.5202880000 -0.1638110000
O -0.3416680000 0.5408010000 -1.1825300000
O 0.2129990000 -1.6984110000 -0.3198870000
O -2.1316700000 -0.9345710000 -0.3429130000
O -0.5050890000 0.0737110000 1.2226880000
O 2.4386100000 0.8490060000 -1.1771420000
H 1.4596070000 0.7608510000 -1.2705700000
H 2.5702750000 0.3530990000 -0.3536750000
O -0.9211460000 2.7440430000 0.5965110000
H -0.8397280000 1.8970900000 1.0892730000
H -0.7439620000 2.3495490000 -0.2765830000
O 2.1716720000 -0.8541300000 1.3338600000
H 1.6394310000 -1.3687320000 0.6753480000
H 1.4197150000 -0.2980580000 1.6193130000
