14
-2 1
S 0.3233000000 0.4725310000 0.2462620000
O -0.3898170000 0.1734910000 1.5394390000
O 0.4340590000 -0.8207860000 -0.5509070000
O 1.6999010000 1.0036900000 0.5188500000
O -0.4711450000 1.4699810000 -0.5487150000
O -3.0237750000 0.4676500000 -1.0085010000
H -2.1414860000 0.8973790000 -0.8865750000
H -2.8591960000 -0.3751370000 -0.5556140000
O -1.8913580000 -1.8883830000 0.5123460000
H -1.5786440000 -1.1943070000 1.1374240000
H -1.1207570000 -1.7954020000 -0.0904560000
O 3.2196970000 -0.9200230000 -0.7948480000
H 2.9957580000 -0.1188450000 -0.2748820000
H 2.2854950000 -1.1922470000 -0.9079150000
