17
-2 1
S -0.0774860000 0.0000010000 0.4391120000
O 0.6126980000 -0.0000060000 1.7640410000
O -0.9417860000 -1.2283850000 0.3010440000
O 0.9591630000 -0.0000220000 -0.6718730000
O -0.9417420000 1.2284160000 0.3010350000
O -3.4753450000 0.0000630000 0.5115570000
H -2.8177140000 -0.7203480000 0.4561270000
H -2.8176870000 0.7204490000 0.4561230000
O 3.2879840000 -0.0000590000 1.0261180000
H 2.4651470000 -0.0000420000 1.5606560000
H 2.8331330000 -0.0000540000 0.1659930000
O 0.2907530000 2.5044280000 -1.8672080000
H -0.3252860000 2.3336150000 -1.1262030000
H 0.7911420000 1.6754710000 -1.7570770000
O 0.2906590000 -2.5044480000 -1.8671990000
H -0.3253740000 -2.3336140000 -1.1261940000
H 0.7910740000 -1.6755060000 -1.7570690000
