20
-2 1
O 0.2349720000 1.2807680000 1.1530320000
S 0.8462450000 0.5837460000 -0.0274690000
O -0.1161980000 0.6638400000 -1.1959960000
O 1.0603340000 -0.8782380000 0.3064360000
O 2.1478060000 1.2125360000 -0.3936910000
H -0.3583780000 -1.6901160000 0.9068200000
O -1.2404020000 -2.0665430000 1.1588590000
H -1.7041260000 -1.2664450000 1.4692150000
H -1.8330920000 1.1714330000 -1.0674380000
O -2.8126530000 1.0454030000 -1.0880150000
H -2.8222270000 0.1045480000 -1.3342070000
H 3.5588060000 -0.0451330000 -0.2282790000
O 3.8880050000 -0.9450820000 -0.0270410000
H 3.0100960000 -1.3155150000 0.1787560000
H -1.0148820000 -0.9018290000 -1.6034810000
O -1.7227870000 -1.5852710000 -1.6324030000
H -1.6655930000 -1.9273050000 -0.7193990000
H -1.3582240000 0.8499920000 1.6169490000
O -2.3030060000 0.5777610000 1.7601410000
H -2.6754270000 0.7633490000 0.8807150000
