20
-2 1
O 1.2346610000 -1.8419080000 0.1095870000
S -0.0064090000 -1.0442440000 -0.0830480000
O -0.3644880000 -0.3110980000 1.1962300000
O -1.1580150000 -1.9185230000 -0.4789000000
O 0.2160160000 -0.0032490000 -1.1685370000
H -0.2365110000 1.4258560000 1.2651470000
O -0.3128540000 2.4075340000 1.1603730000
H -0.9162150000 2.4367800000 0.3978530000
H 1.4563800000 1.2119260000 -0.8946730000
O 2.0139920000 1.9639800000 -0.5769620000
H 1.4141520000 2.3238990000 0.0986090000
H 2.8260350000 -0.9181800000 0.3133000000
O 3.6205390000 -0.3439450000 0.3684400000
H 3.2384300000 0.5175860000 0.1325250000
H -2.5571230000 1.0548550000 -0.6032560000
O -1.9997270000 1.6419020000 -1.1431840000
H -1.2025370000 1.0695740000 -1.2681960000
H -2.3540050000 -0.1693510000 1.2050280000
O -3.1349780000 -0.4226710000 0.6762330000
H -2.6590720000 -1.0906320000 0.1283160000
