10
0 1
C -0.9805960000 -0.0352080000 0.0000000000
C 1.1955140000 0.2031130000 0.0000000000
O 0.8685760000 -1.1109260000 0.0000000000
N -0.5519880000 -1.2386800000 0.0000000000
C -2.3939700000 0.3933460000 0.0000000000
H -2.6030260000 0.9987880000 0.8822160000
H -2.6030260000 0.9987880000 -0.8822160000
H -3.0359240000 -0.4831330000 0.0000000000
O 2.2789500000 0.6795210000 0.0000000000
O 0.0000000000 0.9050070000 0.0000000000
