11
0 1
C 0.7900030000 0.2005560000 0.0066950000
C -1.6378240000 -0.0912410000 0.2389370000
O -1.1949890000 1.1925830000 -0.1801430000
N 0.2008050000 1.3290960000 -0.0225810000
S -0.2486230000 -1.2334700000 -0.1010010000
C 2.2743960000 0.0865270000 0.0807120000
H 2.5793300000 -0.4252480000 0.9939490000
H 2.6522280000 -0.4910660000 -0.7647450000
H 2.7170580000 1.0794520000 0.0594060000
H -1.8577630000 -0.0927700000 1.3096010000
H -2.5180510000 -0.3542410000 -0.3410380000
