11
0 1
C 0.3663410000 0.3313240000 -0.1783000000
C -1.9327720000 -0.2817970000 0.3817380000
H -2.8522940000 -0.6166030000 -0.0893870000
O -1.7124260000 1.0776200000 0.0124200000
N -0.3450510000 1.3789850000 -0.0310500000
S -0.4829170000 -1.2146030000 -0.2404720000
C 1.8399620000 0.4510150000 -0.3824000000
H 2.1278040000 0.0424020000 -1.3530080000
H 2.1272370000 1.4986070000 -0.3164300000
F 2.5317040000 -0.2656490000 0.5921990000
H -1.9878390000 -0.3770140000 1.4683590000
