13
0 1
C 1.0321200000 0.0225230000 -0.0051740000
C -1.1590840000 -0.1331150000 -0.4222090000
H -1.5742200000 -0.1542340000 -1.4311680000
O -0.7556420000 1.2145450000 -0.1037190000
N 0.6376270000 1.2158020000 0.1942840000
N -2.0864340000 -0.7072520000 0.4769570000
H -1.8724660000 -0.4909570000 1.4425730000
H -3.0367760000 -0.4385280000 0.2659640000
C 2.4156050000 -0.4750260000 0.1716050000
H 2.4404160000 -1.2684660000 0.9195350000
H 2.7900340000 -0.8890460000 -0.7654420000
H 3.0579480000 0.3419180000 0.4879810000
O 0.0812510000 -0.8578980000 -0.4067140000
