11
0 1
C -0.9740990000 0.0570560000 0.0158220000
C 1.1674520000 -0.1553900000 0.4081440000
O 0.8609030000 1.1673410000 0.1543060000
N -0.5181630000 1.2142440000 -0.2497270000
C -2.3630340000 -0.4105810000 -0.1779320000
H -2.3844990000 -1.2478240000 -0.8759220000
H -2.7777980000 -0.7527200000 0.7708570000
H -2.9695590000 0.4023120000 -0.5664690000
H 1.7967670000 -0.2737390000 1.2860540000
F 1.8420020000 -0.7123170000 -0.6595350000
O -0.0606160000 -0.8127660000 0.5448430000
