10
0 1
C 0.0000000000 0.0000000000 0.1843360000
O 0.0000000000 0.0000000000 1.3946380000
C 0.0000000000 1.2877130000 -0.6113770000
H 0.8767580000 1.3298110000 -1.2614640000
H -0.8767580000 1.3298110000 -1.2614640000
H 0.0000000000 2.1423780000 0.0596310000
C 0.0000000000 -1.2877130000 -0.6113770000
H -0.8767580000 -1.3298110000 -1.2614640000
H 0.8767580000 -1.3298110000 -1.2614640000
H 0.0000000000 -2.1423780000 0.0596310000
