17
0 1
C 1.2830600000 0.0121640000 -0.0343130000
C -0.9490500000 -0.0741690000 -0.0025900000
O -0.4588250000 1.2817250000 -0.0399250000
N 0.9623970000 1.2407820000 0.0516310000
C 2.6654770000 -0.5203520000 -0.0302190000
H 2.8055880000 -1.2099400000 0.8030850000
H 2.8586690000 -1.0696530000 -0.9527550000
H 3.3720160000 0.3002770000 0.0555330000
C -1.5719550000 -0.3695790000 1.3517130000
H -2.4451440000 0.2644420000 1.5009290000
H -1.8789300000 -1.4136140000 1.4114600000
H -0.8536450000 -0.1634120000 2.1438380000
C -1.8733850000 -0.3152860000 -1.1778740000
H -2.2210470000 -1.3480050000 -1.1830500000
H -2.7376740000 0.3437480000 -1.1053020000
H -1.3511190000 -0.1075330000 -2.1096540000
O 0.2575280000 -0.8665320000 -0.1558000000
