32
0 1
C 0.0000000000 -1.2484145423 -1.4618420989
C 0.0000000000 1.2484145423 -1.4618420989
C -1.2444376075 0.0000000000 0.3226182413
C 1.2444376075 0.0000000000 0.3226182413
C 0.0000000000 0.0000000000 -2.3463001550
C -1.2540091432 -1.2390025652 -0.5821164167
C -1.2540091432 1.2390025652 -0.5821164167
C 1.2540091432 1.2390025652 -0.5821164167
C 1.2540091432 -1.2390025652 -0.5821164167
C 0.0000000000 0.0000000000 1.2378130285
H -0.8817563285 0.0000000000 -2.9933035936
H 0.8817563285 0.0000000000 -2.9933035936
H -1.3143291738 -2.1556637783 0.0059061714
H -1.3143291738 2.1556637783 0.0059061714
H 1.3143291738 2.1556637783 0.0059061714
H 1.3143291738 -2.1556637783 0.0059061714
H -2.1448748523 -1.2127978656 -1.2163757621
H -2.1448748523 1.2127978656 -1.2163757621
H 2.1448748523 1.2127978656 -1.2163757621
H 2.1448748523 -1.2127978656 -1.2163757621
C 0.0000000000 1.2201743579 2.1623260685
C 0.0000000000 -1.2201743579 2.1623260685
H 0.0000000000 -2.1430163826 -2.0892201974
H 0.0000000000 2.1430163826 -2.0892201974
H -2.1393841141 0.0000000000 0.9542911743
H 2.1393841141 0.0000000000 0.9542911743
H 0.8820197912 1.1988172041 2.8056067512
H 0.8820197912 -1.1988172041 2.8056067512
H -0.8820197912 -1.1988172041 2.8056067512
H -0.8820197912 1.1988172041 2.8056067512
H 0.0000000000 2.1686921261 1.6333324816
H 0.0000000000 -2.1686921261 1.6333324816
