38
0 1
C -0.8939583815 -0.8939583815 -0.8939583815
C 0.8939583815 0.8939583815 -0.8939583815
C -0.8939583815 0.8939583815 0.8939583815
C 0.8939583815 -0.8939583815 0.8939583815
C -1.7562808671 0.0000000000 0.0000000000
C 0.0000000000 0.0000000000 -1.7562808671
C 0.0000000000 1.7562808671 0.0000000000
C 0.0000000000 -1.7562808671 0.0000000000
C 1.7562808671 0.0000000000 0.0000000000
C 0.0000000000 0.0000000000 1.7562808671
H -2.4069362910 -0.6238807677 0.6238807677
H 0.6238807677 -0.6238807677 -2.4069362910
H 0.6238807677 2.4069362910 0.6238807677
H -0.6238807677 -2.4069362910 0.6238807677
H 2.4069362910 -0.6238807677 -0.6238807677
H 0.6238807677 0.6238807677 2.4069362910
H -0.6238807677 -0.6238807677 2.4069362910
H 0.6238807677 -2.4069362910 -0.6238807677
H 2.4069362910 0.6238807677 0.6238807677
H -2.4069362910 0.6238807677 -0.6238807677
H -0.6238807677 0.6238807677 -2.4069362910
H -0.6238807677 2.4069362910 -0.6238807677
C -1.7719497985 -1.7719497985 -1.7719497985
C 1.7719497985 1.7719497985 -1.7719497985
C -1.7719497985 1.7719497985 1.7719497985
C 1.7719497985 -1.7719497985 1.7719497985
H 1.1625375045 2.4123667501 -2.4123667501
H -2.4123667501 2.4123667501 1.1625375045
H -2.4123667501 -1.1625375045 -2.4123667501
H 2.4123667501 1.1625375045 -2.4123667501
H -1.1625375045 2.4123667501 2.4123667501
H -2.4123667501 -2.4123667501 -1.1625375045
H 2.4123667501 2.4123667501 -1.1625375045
H -2.4123667501 1.1625375045 2.4123667501
H -1.1625375045 -2.4123667501 -2.4123667501
H 1.1625375045 -2.4123667501 2.4123667501
H 2.4123667501 -2.4123667501 1.1625375045
H 2.4123667501 -1.1625375045 2.4123667501
