23
0 1
C -2.0556875563 -1.9090152798 0.1787330323
C -0.6532822038 -1.4306322157 -0.1799037371
C -0.4765005222 0.0858637737 -0.0767774362
C 0.8253440229 0.5463149360 -0.7563410013
C 2.0850532405 0.0462877820 -0.0542362276
C 0.8813581859 2.0632861087 -0.9099452243
C -0.5913590516 0.5541511612 1.3719094795
H -2.8028781537 -1.4081046378 -0.4376245891
H -2.1572400751 -2.9814888849 0.0190074481
H -2.2954293057 -1.7098356258 1.2215411501
H -0.4213457543 -1.7407874196 -1.2020425427
H 0.0736947811 -1.9258731002 0.4681252406
H -1.2960484999 0.5436285329 -0.6435142708
H 0.8109100964 0.1149062196 -1.7624486572
H 2.1766112049 0.4827643756 0.9405748342
H 2.9710689935 0.3349113819 -0.6197009569
H 2.0963904111 -1.0376704385 0.0483580455
H 0.9750846377 2.5552457601 0.0580874590
H -0.0160861107 2.4450607830 -1.3974810156
H 1.7428009403 2.3581581799 -1.5092498613
H 0.1474798644 0.0566199105 2.0010468332
H -1.5752715508 0.3271265419 1.7784024360
H -0.4446675947 1.6290821552 1.4634795616
