23
0 1
C -1.2247597040 -1.1652317029 0.0000000000
C -0.5986208437 0.2290146150 0.0000000000
C 0.9491461673 0.1770038969 0.0000000000
C 1.5381502409 -0.4917888818 1.2411620418
C 1.5381502409 -0.4917888818 -1.2411620418
C -1.0883127816 0.9877261449 1.2350997051
C -1.0883127816 0.9877261449 -1.2350997051
H -0.9401616656 -1.7355694913 0.8837910771
H -2.3125134213 -1.0795667718 0.0000000000
H -0.9401616656 -1.7355694913 -0.8837910771
H 1.2786338060 1.2226246555 0.0000000000
H 1.2638522531 -1.5463135617 1.2845913992
H 1.2157966054 -0.0174241685 2.1653802225
H 2.6263252542 -0.4413330984 1.2073689945
H 1.2638522531 -1.5463135617 -1.2845913992
H 2.6263252542 -0.4413330984 -1.2073689945
H 1.2157966054 -0.0174241685 -2.1653802225
H -0.8837231109 0.4431272586 2.1553615636
H -2.1664374216 1.1424177206 1.1768449569
H -0.6114323760 1.9672357314 1.3045689778
H -0.8837231109 0.4431272586 -2.1553615636
H -0.6114323760 1.9672357314 -1.3045689778
H -2.1664374216 1.1424177206 -1.1768449569
