20
0 1
C -2.3044212029 -0.5849373108 -0.1529206209
C -1.0486746182 0.2575112695 -0.3476918364
C 0.1920823506 -0.5506239453 0.0278485712
C 1.5186515089 0.1391722248 -0.2645343608
C 2.7121015480 -0.7595920349 0.0333853609
C -1.1547732518 1.5476566027 0.4585818507
H -2.4108475848 -0.8640973169 0.8970013045
H -3.1994275810 -0.0357015441 -0.4443950744
H -2.2619427301 -1.5018356655 -0.7402347445
H -0.9696770105 0.5184268840 -1.4081272933
H 0.1393853698 -0.7998761576 1.0935375006
H 0.1670862872 -1.5020694064 -0.5116900053
H 1.6005679667 1.0538499460 0.3237915276
H 1.5385224959 0.4422400273 -1.3145385552
H 2.7151782328 -1.0626307708 1.0804283734
H 3.6556248474 -0.2560548978 -0.1712847147
H 2.6768744340 -1.6650713792 -0.5720879524
H -1.1932334990 1.3203807124 1.5261372607
H -2.0632578163 2.0916535385 0.2007451748
H -0.3098197469 2.2115992240 0.2860482336
