20
0 1
C -1.5847049309 1.4589476219 0.0000000000
C -1.2036418635 -0.0170664481 0.0000000000
C 0.3014065362 -0.3213457629 0.0000000000
C 0.9703018762 0.2531346102 1.2470611439
C 0.4762564048 -1.8386593037 0.0000000000
C 0.9703018762 0.2531346102 -1.2470611439
H -1.2031225590 1.9726126797 -0.8807710121
H -2.6679634669 1.5717828331 0.0000000000
H -1.2031225590 1.9726126797 0.8807710121
H -1.6460946910 -0.5013576640 -0.8753616562
H -1.6460946910 -0.5013576640 0.8753616562
H 0.4887816237 -0.1189452011 2.1530613464
H 0.9278391267 1.3416962971 1.2615310376
H 2.0212773217 -0.0374818863 1.2809614412
H 0.0136077558 -2.2823552129 0.8829119849
H 1.5334664119 -2.1082661857 0.0000000000
H 0.0136077558 -2.2823552129 -0.8829119849
H 0.9278391267 1.3416962971 -1.2615310376
H 0.4887816237 -0.1189452011 -2.1530613464
H 2.0212773217 -0.0374818863 -1.2809614412
