28
0 1
C 1.4527186391 -0.1775501525 1.2634732250
C 1.4527186391 -0.1775501525 -1.2634732250
C -1.4527186391 0.1775501525 1.2634732250
C -1.4527186391 0.1775501525 -1.2634732250
C 0.7192721628 0.2613239391 0.0000000000
C -0.7192721628 -0.2613239391 0.0000000000
C 0.7166072738 0.2614583591 -2.5251732542
C 0.7166072738 0.2614583591 2.5251732542
C -0.7166072738 -0.2614583591 -2.5251732542
C -0.7166072738 -0.2614583591 2.5251732542
H 0.6990535621 1.3544652833 -2.5676026802
H 0.6990535621 1.3544652833 2.5676026802
H -0.6990535621 -1.3544652833 -2.5676026802
H -0.6990535621 -1.3544652833 2.5676026802
H -1.5382288858 1.2696342017 -1.2554953160
H -1.5382288858 1.2696342017 1.2554953160
H 1.5382288858 -1.2696342017 -1.2554953160
H 1.5382288858 -1.2696342017 1.2554953160
H -0.6658142135 -1.3594280752 0.0000000000
H 0.6658142135 1.3594280752 0.0000000000
H 1.2476471939 -0.0815967595 -3.4145276640
H 1.2476471939 -0.0815967595 3.4145276640
H -1.2476471939 0.0815967595 -3.4145276640
H -1.2476471939 0.0815967595 3.4145276640
H -2.4709207016 -0.2187946075 -1.2555724532
H -2.4709207016 -0.2187946075 1.2555724532
H 2.4709207016 0.2187946075 -1.2555724532
H 2.4709207016 0.2187946075 1.2555724532
