34
0 1
C 0.5756332552 0.5076860883 0.4844253297
C 2.6531411251 1.3991082223 -0.6289001471
C 1.2471373185 2.9221133775 0.7898130283
C 0.0821243257 1.9433283586 0.6677879577
C 2.1647316955 2.8297612739 -0.4253089073
C 1.4770703638 0.4321417258 -0.7486672293
C -0.5756332552 -0.5076860883 0.4844253297
C -0.0821243257 -1.9433283586 0.6677879577
C -1.2471373185 -2.9221133775 0.7898130283
C -2.1647316955 -2.8297612739 -0.4253089073
C -2.6531411251 -1.3991082223 -0.6289001471
C -1.4770703638 -0.4321417258 -0.7486672293
H 1.1997638385 0.2704111630 1.3569203179
H 3.2848256898 1.3363991953 -1.5165432805
H 3.2730055227 1.1060201746 0.2236145991
H 1.8205000243 2.6850851483 1.6908827871
H 0.8754326400 3.9411205646 0.9094761464
H -0.5323641250 2.2297921552 -0.1908179043
H -0.5582041616 2.0017836740 1.5514861291
H 1.6130024073 3.1481645002 -1.3149101895
H 3.0110192785 3.5098701943 -0.3165243189
H 1.8431216993 -0.5854902289 -0.8955536926
H 0.8954484001 0.6948417410 -1.6371806256
H -1.1997638385 -0.2704111630 1.3569203179
H 0.5323641250 -2.2297921552 -0.1908179043
H 0.5582041616 -2.0017836740 1.5514861291
H -1.8205000243 -2.6850851483 1.6908827871
H -0.8754326400 -3.9411205646 0.9094761464
H -1.6130024073 -3.1481645002 -1.3149101895
H -3.0110192785 -3.5098701943 -0.3165243189
H -3.2730055227 -1.1060201746 0.2236145991
H -3.2848256898 -1.3363991953 -1.5165432805
H -1.8431216993 0.5854902289 -0.8955536926
H -0.8954484001 -0.6948417410 -1.6371806256
