36
0 1
C 2.8244729687 -1.3647367292 -0.0198944573
C 4.1973683523 -0.9111095375 0.4662830145
C 4.5686791601 0.4380375626 -0.1402233161
C 3.4973381926 1.4784993954 0.1679145447
C 2.1244345322 1.0168788262 -0.3144843164
C 1.7365448992 -0.3351897655 0.2824309947
C 0.3799300962 -0.8250451711 -0.2174860028
C -0.8023358500 0.0559127109 0.1684754826
C -2.1405799463 -0.5432482298 -0.2458654871
C -3.3294061098 0.3342333477 0.1221764906
C -4.6684582611 -0.2656451780 -0.2861416900
C -5.8458192524 0.6248537104 0.0887235625
H 2.5576864212 -2.3236270910 0.4303649069
H 2.8603855776 -1.5234449454 -1.1034141518
H 4.1800942461 -0.8210771338 1.5564360664
H 4.9520500178 -1.6604485452 0.2223436219
H 4.6615765778 0.3295985833 -1.2249504307
H 5.5399081967 0.7693748154 0.2302737116
H 3.4587992533 1.6423387812 1.2489697643
H 3.7535568021 2.4363494011 -0.2875929549
H 2.1370197701 0.9214762824 -1.4064218968
H 1.3743136820 1.7703220938 -0.0709143489
H 1.6768874662 -0.2183787977 1.3723662565
H 0.2074818927 -1.8329116949 0.1728481483
H 0.4206478897 -0.9208661721 -1.3078812156
H -0.7967657175 0.2122570919 1.2515694735
H -0.7018423448 1.0427460127 -0.2880698743
H -2.2573517487 -1.5250819867 0.2217920280
H -2.1392224417 -0.7152224371 -1.3261617240
H -3.3278970329 0.5107928404 1.2017896185
H -3.2151313943 1.3145967489 -0.3495069419
H -4.7809040676 -1.2442712587 0.1859295380
H -4.6675440980 -0.4419121502 -1.3641758500
H -5.8769349902 0.7916535918 1.1653305594
H -6.7958391947 0.1837783724 -0.2088411292
H -5.7631435446 1.5985166555 -0.3939919948
