21
0 1
C -0.5742609954 0.8468461495 0.0000000000
C 0.0923444903 0.2776770379 1.2502762171
C 0.0797649165 -1.2480306121 1.2559320354
C 0.7450338823 -1.8026978071 0.0000000000
C 0.0797649165 -1.2480306121 -1.2559320354
C 0.0923444903 0.2776770379 -1.2502762171
C -0.5377459455 2.3682112519 0.0000000000
H -1.6208241302 0.5205053842 0.0000000000
H 1.1290440903 0.6308800222 1.2816735914
H -0.4009618616 0.6676170500 2.1434691902
H -0.9560871102 -1.5975433731 1.2964455607
H 0.5769457157 -1.6279396735 2.1497465998
H 1.8017224004 -1.5191447819 0.0000000000
H 0.7090952985 -2.8931007100 0.0000000000
H -0.9560871102 -1.5975433731 -1.2964455607
H 0.5769457157 -1.6279396735 -2.1497465998
H -0.4009618616 0.6676170500 -2.1434691902
H 1.1290440903 0.6308800222 -1.2816735914
H 0.4951522203 2.7207772414 0.0000000000
H -1.0301366062 2.7766411847 -0.8827239626
H -1.0301366062 2.7766411847 0.8827239626
