21
0 1
C 1.3309036384 1.0490519688 -0.7755037749
C 1.3309036384 1.0490519688 0.7755037749
C -0.0528259249 0.5171959105 -1.1825233661
C -0.5099246772 -0.3452198850 0.0000000000
C -0.0528259249 0.5171959105 1.1825233661
C -2.0112053971 -0.5863577927 0.0000000000
C 0.2294692583 -1.6817394221 0.0000000000
H 2.1181708397 0.4004723099 -1.1568410914
H 1.5152961481 2.0405797605 -1.1845151214
H 2.1181708397 0.4004723099 1.1568410914
H 1.5152961481 2.0405797605 1.1845151214
H -0.0392022607 -0.0362955658 -2.1226075385
H -0.7533979140 1.3478131489 -1.2990164122
H -0.0392022607 -0.0362955658 2.1226075385
H -0.7533979140 1.3478131489 1.2990164122
H -2.5546768967 0.3594676873 0.0000000000
H -2.3162361615 -1.1525757606 -0.8815094031
H -2.3162361615 -1.1525757606 0.8815094031
H 1.3110376611 -1.5470778169 0.0000000000
H -0.0350583394 -2.2657781575 0.8827723490
H -0.0350583394 -2.2657781575 -0.8827723490
