21
0 1
C -0.7897886585 0.5627263890 0.0000000000
C -0.3320265823 -0.2663722380 1.1971907100
C -0.3320265823 -0.2663722380 -1.1971907100
C 1.0735702892 -0.7308407062 -0.7734396627
C 1.0735702892 -0.7308407062 0.7734396627
C -0.3574948421 0.4659381583 2.5272365543
C -0.3574948421 0.4659381583 -2.5272365543
H -0.2620259133 1.5235531812 0.0000000000
H -1.8612415118 0.7677828170 0.0000000000
H -0.9838121799 -1.1430233717 1.2600106993
H -0.9838121799 -1.1430233717 -1.2600106993
H 1.3217903365 -1.7038648017 -1.1953108968
H 1.8121981031 -0.0223527471 -1.1527557361
H 1.3217903365 -1.7038648017 1.1953108968
H 1.8121981031 -0.0223527471 1.1527557361
H 0.2750029363 1.3537827589 2.4793308468
H 0.0138202072 -0.1651646756 3.3349233414
H -1.3665202262 0.7848664294 2.7884625837
H 0.2750029363 1.3537827589 -2.4793308468
H -1.3665202262 0.7848664294 -2.7884625837
H 0.0138202072 -0.1651646756 -3.3349233414
