21
0 1
C -0.7243928650 -0.2462552778 -0.2947386338
C -0.8546775019 -0.8822777696 1.0909722809
C 0.7243928650 0.2462552778 -0.2947386338
C 0.8546775019 0.8822777696 1.0909722809
C 0.0000000000 0.0000000000 2.0277248597
C -1.0792516186 -1.1833923032 -1.4349394154
C 1.0792516186 1.1833923032 -1.4349394154
H -1.3684056923 0.6406600390 -0.3378493821
H -1.8902804068 -0.9706536792 1.4174727089
H -0.4434132077 -1.8934532529 1.0454259129
H 1.3684056923 -0.6406600390 -0.3378493821
H 1.8902804068 0.9706536792 1.4174727089
H 0.4434132077 1.8934532529 1.0454259129
H 0.6245276438 -0.6118855699 2.6761867951
H -0.6245276438 0.6118855699 2.6761867951
H -0.4192309833 -2.0527375185 -1.4246058435
H -0.9804435162 -0.6960747023 -2.4045493010
H -2.1048132049 -1.5421696891 -1.3472375516
H 0.4192309833 2.0527375185 -1.4246058435
H 0.9804435162 0.6960747023 -2.4045493010
H 2.1048132049 1.5421696891 -1.3472375516
