8
0 1
C -0.0996130000 -0.1725360000 -0.0421210000
H -0.0700930000 -0.1214060000 1.0432180000
H 0.9117290000 -0.1996740000 -0.4389760000
H -0.6287880000 0.6897430000 -0.4389760000
H -0.6217760000 -1.0769480000 -0.3389230000
H 1.1433430000 1.9803280000 0.4684390000
H 1.7538260000 3.0377170000 1.3702870000
O 1.6242800000 2.8133350000 0.4445530000
