8
0 1
C -1.0752470000 1.0229700000 0.0000000000
C -1.2426790000 -0.4925420000 0.0000000000
H -1.5396430000 1.4660740000 0.8794130000
H -0.7893880000 -0.9409140000 0.8849590000
H -0.0239280000 1.3054320000 0.0000000000
H -0.7893880000 -0.9409140000 -0.8849590000
H -1.5396430000 1.4660740000 -0.8794130000
H -2.2935660000 -0.7778080000 0.0000000000
