11
0 1
C 0.0340330000 0.0000000000 0.1563770000
C -0.0476520000 0.0000000000 1.6788180000
H -0.9627570000 0.0000000000 -0.2853020000
H -0.5752460000 0.8795690000 2.0436780000
H 0.5631650000 0.8819240000 -0.2044970000
H 0.9457960000 0.0000000000 2.1238070000
H 0.5631650000 -0.8819240000 -0.2044970000
H -0.5752460000 -0.8795690000 2.0436780000
H 0.3327610000 0.0000000000 -2.3454760000
H -0.2131800000 0.0000000000 -3.7615830000
O 0.6110160000 0.0000000000 -3.2667810000
