7
0 1
C 0.6066460000 -0.0197920000 0.9883710000
C -0.6066460000 -0.0197920000 0.9883710000
H 1.6699290000 -0.0201180000 0.9937330000
H -1.6699290000 -0.0201180000 0.9937330000
H 0.0000000000 -2.1437290000 -0.0186540000
O 0.0000000000 -3.0310030000 -0.3979520000
H 0.0000000000 -2.8800980000 -1.3472270000
