9
0 1
H -1.3140490000 2.2768890000 0.0137360000
C -0.4925400000 1.6009410000 0.0093500000
C 0.4456080000 0.8193240000 0.0015800000
C 1.4936070000 -0.0612070000 -0.0052900000
H -1.7336180000 -0.4776690000 -0.0108670000
O -2.5956400000 -0.9082140000 -0.0487140000
H -2.5240460000 -1.6350040000 0.5765040000
C 2.4238870000 -0.8505900000 -0.0109240000
H 3.2363200000 -1.5363120000 -0.0181380000
