9
0 1
C 0.0363900000 -0.0146170000 0.0823190000
C 0.0363900000 -0.0146170000 1.4176800000
H 0.9367040000 0.1922430000 -0.4794980000
H 0.9367040000 0.1922430000 1.9794980000
H -0.8646430000 -0.2178350000 1.9797490000
H -0.8646430000 -0.2178350000 -0.4797490000
H 0.0086390000 -2.3870110000 0.7500000000
O -0.2654370000 -3.3125810000 0.7500000000
H 0.5597590000 -3.8054750000 0.7500000000
