10
0 1
C 0.7762170000 -0.4963910000 0.0000000000
C 0.0000000000 0.5979810000 0.0000000000
C 0.5203070000 1.9545010000 0.0000000000
C -0.2534110000 3.0503790000 0.0000000000
H -1.0800440000 0.4873870000 0.0000000000
H 1.6005080000 2.0636710000 0.0000000000
H -1.3328650000 2.9675440000 0.0000000000
H 1.8552850000 -0.4001570000 0.0000000000
H 0.1741780000 4.0426620000 0.0000000000
H 0.3549780000 -1.4918700000 0.0000000000
