8
0 1
C 0.0158150000 -0.0411900000 -0.0020400000
C 0.0158150000 -0.0411900000 1.3420400000
C 1.5790040000 0.0764380000 1.3427230000
C 1.5790040000 0.0764380000 -0.0027230000
H -0.7447600000 -0.0917440000 -0.7659220000
H 2.3399160000 0.1491710000 -0.7648580000
H 2.3399160000 0.1491710000 2.1048580000
H -0.7447600000 -0.0917440000 2.1059220000
