14
0 1
C -0.6514180000 0.2554490000 -1.1945970000
C -0.8528170000 -1.0456300000 -0.4836420000
C -0.8118800000 -0.8335180000 0.8536750000
C -0.5807380000 0.5873510000 1.1055150000
C -0.4815010000 1.2389940000 -0.0795580000
H -0.3156210000 2.2968800000 -0.2191110000
H -0.9301070000 -1.5855310000 1.6204860000
H -0.5053420000 1.0382470000 2.0848060000
H -1.0100810000 -1.9920760000 -0.9792360000
H 0.2244880000 0.2305610000 -1.8509300000
H -1.5116050000 0.5082710000 -1.8233990000
O 2.5316070000 -0.1202630000 -0.0458680000
H 1.7195000000 0.2927320000 0.2765770000
H 2.3433600000 -1.0608440000 0.0239480000
