11
0 1
C 0.0011780000 0.1427620000 0.0009250000
C 0.0001420000 0.2048010000 1.4961460000
C 1.2780660000 0.2986060000 1.9380130000
C 2.1826630000 0.2986040000 0.7907830000
C 1.4549180000 0.2047970000 -0.3488310000
H 1.8401880000 0.1887570000 -1.3576730000
H 1.5894270000 0.3663830000 2.9706260000
H 3.2594180000 0.3663790000 0.8527070000
H -0.8910130000 0.1887640000 2.1060950000
H -0.4691250000 -0.7735790000 -0.3699100000
H -0.5519960000 0.9812570000 -0.4352570000
