12
0 1
C 0.0000000000 0.0000000000 0.4641420000
C 0.0000000000 1.2058030000 -0.2369850000
C 0.0000000000 1.2071680000 -1.6314370000
C 0.0000000000 0.0000000000 -2.3292390000
C 0.0000000000 -1.2071680000 -1.6314370000
C 0.0000000000 -1.2058030000 -0.2369850000
H 0.0000000000 0.0000000000 1.5465620000
H 0.0000000000 2.1432610000 0.3046690000
H 0.0000000000 2.1447470000 -2.1727390000
H 0.0000000000 0.0000000000 -3.4118110000
H 0.0000000000 -2.1447470000 -2.1727390000
H 0.0000000000 -2.1432610000 0.3046690000
