15
0 1
C 1.3681110000 0.0000000000 1.1339180000
C 0.6704590000 1.2085830000 1.1340660000
C -0.7240620000 1.2081650000 1.1332290000
C -1.4209390000 0.0000000000 1.1323900000
C -0.7240620000 -1.2081650000 1.1332290000
C 0.6704590000 -1.2085830000 1.1340660000
H 2.4504440000 0.0000000000 1.1362260000
H 1.2118500000 2.1455500000 1.1396340000
H -1.2648960000 2.1455800000 1.1355780000
H -2.5034350000 0.0000000000 1.1300700000
H -1.2648960000 -2.1455800000 1.1355780000
H 1.2118500000 -2.1455500000 1.1396340000
O 0.3047890000 0.0000000000 4.4370010000
H 0.5374180000 0.0000000000 3.5002410000
H -0.6567060000 0.0000000000 4.4264290000
