7
-1 1
O 2.5808100000 -2.0685700000 0.9505400000
C 3.2345000000 -1.4703500000 0.0483300000
C 3.8950200000 -2.3523700000 -1.0228100000
F 4.2222000000 -3.5813400000 -0.5459900000
O 3.3732400000 -0.2435800000 -0.1127900000
F 2.9832800000 -2.5505000000 -2.0274100000
H 4.7841100000 -1.8972200000 -1.4556200000
