18
0 1
C -0.0921400000 -0.0198600000 0.0333900000
C -0.0921400000 -0.0198600000 1.5476500000
N 1.3036600000 -0.0198600000 2.0605600000
H 1.8245400000 0.7927600000 1.7193200000
H 1.8337500000 -0.8759300000 1.6997600000
H 1.3305500000 -0.0055000000 3.0833900000
H -0.5728700000 -0.9106700000 1.9464600000
H -0.5981900000 0.8552000000 1.9497300000
H -1.1186900000 -0.0185000000 -0.3265200000
H 0.4097800000 0.8641200000 -0.3567000000
H 0.4122600000 -0.9019100000 -0.3549400000
O 2.5808100000 -2.0685700000 0.9505400000
C 3.2345000000 -1.4703500000 0.0483300000
C 3.8950200000 -2.3523700000 -1.0228100000
F 4.2222000000 -3.5813400000 -0.5459900000
O 3.3732400000 -0.2435800000 -0.1127900000
F 2.9832800000 -2.5505000000 -2.0274100000
H 4.7841100000 -1.8972200000 -1.4556200000
