7
-1 1
O 2.8046200000 -2.0520900000 0.8605100000
C 3.4541600000 -1.3595900000 0.0286200000
C 4.2241700000 -2.2198800000 -1.0069500000
F 5.0389100000 -3.0975000000 -0.4018900000
O 3.5346600000 -0.1283400000 -0.0734000000
F 4.9731000000 -1.4933400000 -1.8381400000
F 3.3670800000 -2.9290200000 -1.7610500000
