18
0 1
C 1.3986900000 0.0046000000 -0.3598600000
N -0.0409200000 -0.1696800000 0.0165700000
C -0.9469100000 0.9457300000 -0.4591900000
C -1.0928100000 1.0563600000 -1.9761500000
C -0.5472800000 -1.5456800000 -0.2919200000
H -0.0602500000 -0.1049000000 1.0430000000
H -0.4564400000 -1.7619500000 -1.3609300000
H 0.0428700000 -2.2534100000 0.2967900000
H 1.7063200000 1.0194700000 -0.0929800000
H 1.9829500000 -0.7051300000 0.2327200000
H -0.5342000000 1.8617000000 -0.0201800000
H -1.9106800000 0.7660400000 0.0322200000
H 1.5444600000 -0.1740300000 -1.4298700000
H -1.5912300000 -1.6104500000 0.0272300000
H -1.7658800000 1.8914300000 -2.2073100000
H -0.1349000000 1.2594200000 -2.4697000000
H -1.5278000000 0.1512000000 -2.4165200000
Cl -0.0629600000 -0.0380300000 2.8605800000
