15
0 1
C -0.6419600000 -1.1900400000 -0.6072500000
N -0.0111600000 0.0234400000 0.0013300000
C -0.6284300000 1.3535100000 -0.3547600000
C -2.0337400000 1.5523900000 0.2103400000
H 0.0521600000 -0.0755400000 1.0251800000
H 0.9586800000 0.0557500000 -0.3439300000
H -0.6087800000 -1.0660700000 -1.6933900000
H -0.0311300000 -2.0563600000 -0.3365900000
H -1.6702800000 -1.3183600000 -0.2580100000
H -2.3893500000 2.5579500000 -0.0465700000
H -2.7524900000 0.8336900000 -0.2018500000
H -2.0433500000 1.4661100000 1.3061100000
H -0.6016200000 1.4064700000 -1.4489700000
H 0.0767000000 2.1066200000 0.0164700000
Cl 2.5528400000 0.1579900000 -1.2258700000
