14
1 1
C -0.6486200000 -1.2472900000 -0.6188800000
N 0.0913500000 -0.0936900000 -0.0162700000
C -0.5170700000 1.2864500000 -0.2717300000
C -1.6868400000 1.5634100000 0.6685300000
H 0.1546700000 -0.1926800000 1.0075800000
H 1.0611900000 -0.0613900000 -0.3615300000
H -0.6611000000 -1.1462400000 -1.7087600000
H -0.1415100000 -2.1743900000 -0.3339000000
H -1.6716400000 -1.2600500000 -0.2351200000
H -2.0782900000 2.5671600000 0.4637700000
H -2.5125700000 0.8522100000 0.5343300000
H -1.3459900000 1.5368600000 1.7099000000
H -0.8021400000 1.3246000000 -1.3301700000
H 0.2953800000 1.9951000000 -0.0825300000
