19
0 1
C 0.6300400000 1.1825100000 2.0740300000
C -0.0159800000 -0.0894800000 1.5234600000
N -0.0165600000 -0.1076600000 0.0077500000
H 0.9418500000 -0.1081100000 -0.3722300000
H -0.4995500000 -0.9446800000 -0.3512900000
H -0.4962100000 0.7221900000 -0.3727000000
H -1.0611600000 -0.1777600000 1.8463900000
H 0.5199500000 -0.9917200000 1.8369500000
H 0.6258800000 1.1266100000 3.1698300000
H 1.6575500000 1.2885000000 1.7133000000
H 0.0526900000 2.0696100000 1.7800100000
O 2.4446900000 0.4063500000 -0.4088800000
S 3.0696300000 0.0068200000 -1.7377800000
C 4.1455300000 1.4106000000 -2.1482700000
O 3.9371100000 -1.1708000000 -1.6048700000
O 2.0174000000 -0.0482500000 -2.7789600000
H 4.6311500000 1.1888300000 -3.1048800000
H 3.5314700000 2.3140800000 -2.2269800000
H 4.8904300000 1.5102300000 -1.3516700000
