11
1 1
C 0.7941600000 1.2402400000 1.8413000000
C 0.0424000000 -0.0006300000 1.3603000000
N 0.0200900000 -0.0439000000 -0.1563100000
H 0.9785100000 -0.0443400000 -0.5362900000
H -0.4629000000 -0.8809100000 -0.5153500000
H -0.4595500000 0.7859500000 -0.5367600000
H -0.9951500000 -0.0157100000 1.7130300000
H 0.5336000000 -0.9230600000 1.6900800000
H 0.8261100000 1.2490500000 2.9371600000
H 1.8241100000 1.2487000000 1.4650700000
H 0.2977400000 2.1615800000 1.5090800000
