10
-1 1
O 1.3805083100 -0.6142758500 0.6455369200
O 0.7599963800 1.3416513000 -0.3841626400
C 0.5623719600 0.1724026600 0.0942213700
H -0.5000998800 -0.1942600300 0.0014523300
H 2.3049946500 2.0152355800 -0.2886660600
O 3.2368638700 2.3765065600 -0.2622252600
C 4.0871525700 1.2373245800 -0.3269174600
H 5.0520928800 1.4930978300 0.1460550100
H 3.6389879600 0.3745652500 0.1947375100
H 4.2941647300 0.9384192200 -1.3756322900
