11
0 1
C 0.0000000000 1.2735300000 -0.2591150000
H -0.8805310000 1.3176890000 -0.9033530000
H 0.8805310000 1.3176890000 -0.9033530000
H 0.0000000000 2.1682800000 0.3647950000
C 0.0000000000 0.0000000000 0.5847940000
H 0.8733490000 0.0000000000 1.2422190000
H -0.8733490000 0.0000000000 1.2422190000
C 0.0000000000 -1.2735300000 -0.2591150000
H 0.8805310000 -1.3176890000 -0.9033530000
H 0.0000000000 -2.1682800000 0.3647950000
H -0.8805310000 -1.3176890000 -0.9033530000
