20
0 1
C 1.9091560000 -1.0675260000 0.0000000000
H 1.6741190000 -1.6655320000 0.8809570000
H 2.9874490000 -0.9025800000 0.0000000000
H 1.6741190000 -1.6655320000 -0.8809570000
C 1.1694340000 0.2703660000 0.0000000000
H 1.4868590000 0.8482020000 -0.8734620000
H 1.4868590000 0.8482020000 0.8734620000
C -0.3772180000 0.2176010000 0.0000000000
C -0.8993380000 -0.4988610000 -1.2550870000
H -1.9902280000 -0.4722660000 -1.2877580000
H -0.5972310000 -1.5461970000 -1.2805600000
H -0.5280450000 -0.0200730000 -2.1636750000
C -0.8993380000 1.6631450000 0.0000000000
H -0.5538800000 2.2063710000 0.8819180000
H -1.9907780000 1.6863900000 0.0000000000
H -0.5538800000 2.2063710000 -0.8819180000
C -0.8993380000 -0.4988610000 1.2550870000
H -1.9902280000 -0.4722660000 1.2877580000
H -0.5280450000 -0.0200730000 2.1636750000
H -0.5972310000 -1.5461970000 1.2805600000
