12
0 1
H -1.3683560000 -0.1809770000 -0.0131690000
H 0.8429490000 -1.0949090000 0.0039680000
H 0.5282980000 1.2766720000 0.0080170000
H -1.9414150000 -1.4840310000 -0.8328750000
H 2.2565610000 -0.9448580000 0.8267350000
H -0.3217060000 2.4237200000 0.8202660000
N -1.4148690000 -1.2004550000 -0.0148500000
N 1.7480400000 -0.6235910000 0.0112300000
N -0.3331680000 1.8237650000 0.0037170000
H 2.2659110000 -0.9381110000 -0.8010180000
H -0.3093480000 2.4304950000 -0.8075470000
H -1.9529210000 -1.4860370000 0.7949440000
