24
0 1
H 1.2594770000 2.2925950000 -0.2507160000
H -1.3563260000 2.2372150000 0.2504760000
H -2.0033310000 -1.8711320000 1.6511860000
H -1.2598730000 -2.2928510000 0.2514970000
H 2.6161670000 0.0552400000 0.2513080000
H -2.6162170000 -0.0561220000 -0.2513800000
H -2.6227690000 0.7981730000 -1.6513170000
H 1.3562340000 -2.2374010000 -0.2511380000
H 0.6187500000 -2.6695820000 -1.6507560000
H -0.6205740000 2.6715410000 1.6503470000
H 2.0047630000 1.8727180000 -1.6499450000
H 2.6246010000 -0.8000550000 1.6506290000
N 2.7817360000 -0.8726570000 0.6516500000
N 2.1459950000 1.9722560000 -0.6509080000
N -2.1458640000 -1.9720880000 0.6524880000
N -0.6356890000 2.8443460000 0.6514280000
N -2.7808880000 0.8715750000 -0.6525560000
N 0.6347350000 -2.8435190000 -0.6520540000
H 2.8207620000 2.7185050000 -0.5261590000
H 3.7653940000 -1.0840710000 0.5272120000
H 0.9425520000 -3.8015890000 -0.5291630000
H -2.8209450000 -2.7183410000 0.5295730000
H -3.7645100000 1.0837740000 -0.5292250000
H -0.9443240000 3.8019960000 0.5272360000
