12
0 1
O -1.3702650000 -1.3702650000 0.0016000000
H -1.5080250000 -0.3961330000 0.0096140000
H -0.3961330000 1.5080250000 -0.0096140000
H 1.8764100000 1.7073250000 -0.7423950000
H -1.8764100000 -1.7073250000 -0.7423950000
H -1.7073250000 1.8764100000 0.7423950000
H 1.5080250000 0.3961330000 0.0096140000
O 1.3702650000 1.3702650000 0.0016000000
O -1.3702650000 1.3702650000 -0.0016000000
H 0.3961330000 -1.5080250000 -0.0096140000
O 1.3702650000 -1.3702650000 -0.0016000000
H 1.7073250000 -1.8764100000 0.7423950000
