15
0 1
O 0.8057130000 -2.1606780000 -0.1296570000
H -0.1525200000 -1.9389520000 -0.0656210000
H -1.9179420000 -0.4659870000 0.0323960000
H 0.9212830000 2.7138340000 -0.8414160000
H 0.9062500000 -2.6747900000 -0.9351180000
H -2.3247520000 -1.7671870000 0.7857140000
H 1.2721480000 1.4786490000 0.0334950000
O 0.6345380000 2.2238740000 -0.0661580000
O -1.8150880000 -1.4453360000 0.0378700000
H 1.8010310000 -0.7496030000 0.0449210000
O 2.3071200000 0.0895300000 0.1531510000
H 2.8390950000 -0.0191140000 0.9456950000
O -1.9206990000 1.2842080000 -0.0557190000
H -1.0092790000 1.6598370000 -0.0657200000
H -2.4279860000 1.8305320000 0.5497560000
