8
0 1
H -0.3020620000 1.4055850000 0.0000000000
H 1.4055850000 0.3020620000 0.0000000000
H 0.3020620000 -1.4055850000 0.0000000000
H -1.4055850000 -0.3020620000 0.0000000000
F 1.2495410000 1.2495410000 0.0000000000
F -1.2495410000 1.2495410000 0.0000000000
F 1.2495410000 -1.2495410000 0.0000000000
F -1.2495410000 -1.2495410000 0.0000000000
