10
0 1
H 0.2859980000 1.7568180000 0.0000000000
H 1.7592110000 0.2708870000 0.0000000000
H -1.2640090000 -1.2531900000 0.0000000000
H -1.5824550000 0.8148870000 0.0000000000
H 0.8012550000 -1.5894010000 0.0000000000
F 1.6996100000 1.2348390000 0.0000000000
F -0.6491930000 1.9980110000 0.0000000000
F -0.6491930000 -1.9980110000 0.0000000000
F -2.1008330000 0.0000000000 0.0000000000
F 1.6996100000 -1.2348390000 0.0000000000
