12
0 1
H -0.8290280000 1.9479720000 0.0637390000
H -2.1015070000 0.2560270000 -0.0637390000
H 0.8290280000 -1.9479720000 -0.0637390000
H 1.2724790000 1.6919450000 -0.0637390000
H -1.2724790000 -1.6919450000 0.0637390000
H 2.1015070000 -0.2560270000 0.0637390000
F 2.0771760000 1.1992580000 -0.2751730000
F 0.0000000000 2.3985170000 0.2751730000
F 0.0000000000 -2.3985170000 -0.2751730000
F -2.0771760000 1.1992580000 -0.2751730000
F -2.0771760000 -1.1992580000 0.2751730000
F 2.0771760000 -1.1992580000 0.2751730000
