16
0 1
C -0.0095520000 0.7454780000 -0.6193110000
C 0.0095520000 -0.7454780000 -0.6193110000
C -0.1844680000 1.3990630000 0.6714590000
C 0.1844680000 -1.3990630000 0.6714590000
C -0.1149850000 0.7145280000 1.8276640000
C 0.1149850000 -0.7145280000 1.8276640000
C 0.1844680000 1.4866910000 -1.7263830000
C -0.1844680000 -1.4866910000 -1.7263830000
H -0.3197830000 2.4730330000 0.6735360000
H 0.3197830000 -2.4730330000 0.6735360000
H -0.2101270000 1.2304130000 2.7738110000
H 0.2101270000 -1.2304130000 2.7738110000
H 0.1344930000 2.5660430000 -1.6824150000
H 0.4149010000 1.0465730000 -2.6855030000
H -0.4149010000 -1.0465730000 -2.6855030000
H -0.1344930000 -2.5660430000 -1.6824150000
