16
0 1
C -0.6298020000 1.0010140000 0.8045990000
C -0.6298020000 1.0010140000 -0.8045990000
C 1.1379670000 -0.4208290000 0.0000000000
C -0.6298020000 -0.2649640000 1.5500610000
C -0.6298020000 -0.2649640000 -1.5500610000
C 0.3946050000 -1.0433410000 1.1779610000
C 0.3946050000 -1.0433410000 -1.1779610000
H -1.3972790000 -0.5400540000 2.2597500000
H -1.3972790000 -0.5400540000 -2.2597500000
C 0.6308740000 1.0456610000 0.0000000000
H -1.0589300000 1.8960360000 -1.2317460000
H -1.0589300000 1.8960360000 1.2317460000
H 1.3089530000 1.8878470000 0.0000000000
H 2.2180060000 -0.5538940000 0.0000000000
H 0.5761960000 -2.0537050000 -1.5168490000
H 0.5761960000 -2.0537050000 1.5168490000
