16
0 1
C -0.7388120000 0.0000000000 -1.4269460000
C 0.0000000000 1.1632780000 -0.8260540000
C 0.0000000000 -1.1632780000 -0.8260540000
C 0.0000000000 1.5360430000 0.6137580000
C 0.0000000000 -1.5360430000 0.6137580000
C 0.0000000000 0.7250640000 1.6812870000
C 0.0000000000 -0.7250640000 1.6812870000
H 0.0000000000 2.6046850000 0.8005590000
H 0.0000000000 -2.6046850000 0.8005590000
H 0.0000000000 1.1947880000 2.6579950000
H 0.0000000000 -1.1947880000 2.6579950000
C 0.7388120000 0.0000000000 -1.4269460000
H 0.0000000000 2.0352840000 -1.4742260000
H 0.0000000000 -2.0352840000 -1.4742260000
H 1.4481700000 0.0000000000 -2.2365990000
H -1.4481700000 0.0000000000 -2.2365990000
