16
0 1
C 0.0000000000 1.9220860000 -0.8679590000
C 0.0000000000 -1.9220860000 -0.8679590000
C 0.0000000000 1.7998010000 0.6372370000
C 0.0000000000 -1.7998010000 0.6372370000
C 0.0000000000 0.7411410000 1.4698620000
C 0.0000000000 -0.7411410000 1.4698620000
C 0.0000000000 0.5987430000 -1.4520910000
C 0.0000000000 -0.5987430000 -1.4520910000
H 0.0000000000 2.7667730000 1.1323360000
H 0.0000000000 -2.7667730000 1.1323360000
H 0.0000000000 1.0715820000 2.5044960000
H 0.0000000000 -1.0715820000 2.5044960000
H 0.8712540000 2.5085730000 -1.1795640000
H -0.8712540000 2.5085730000 -1.1795640000
H -0.8712540000 -2.5085730000 -1.1795640000
H 0.8712540000 -2.5085730000 -1.1795640000
