16
0 1
C -0.5866510000 -0.3931810000 0.0000000000
C 0.0000000000 0.6628270000 0.0000000000
C 1.9660050000 2.0691490000 0.0000000000
C 0.6615820000 1.9157430000 0.0000000000
C -1.3155340000 -1.6155180000 0.0000000000
C 3.2507390000 2.2413650000 0.0000000000
C -0.6877140000 -2.7987080000 0.0000000000
C -2.8202260000 -1.4948020000 0.0000000000
H 0.0389990000 2.8070900000 0.0000000000
H 3.8114890000 2.3130380000 0.9253600000
H 3.8114890000 2.3130380000 -0.9253600000
H -3.2889270000 -2.4775270000 0.0000000000
H -3.1624120000 -0.9436790000 -0.8777400000
H -3.1624120000 -0.9436790000 0.8777400000
H 0.3905360000 -2.8658070000 0.0000000000
H -1.2479650000 -3.7237180000 0.0000000000
