16
0 1
C 0.3255080000 3.1230480000 0.7473720000
C -0.6300880000 2.2085440000 0.0000000000
C 0.3255080000 3.1230480000 -0.7473720000
H -0.1086780000 3.9657220000 1.2661590000
H 1.1533660000 2.6518660000 1.2559120000
H -1.6693670000 2.5138920000 0.0000000000
H 1.1533660000 2.6518660000 -1.2559120000
H -0.1086780000 3.9657220000 -1.2661590000
C -0.4236170000 0.7939600000 0.0000000000
C -0.2490560000 -0.4032310000 0.0000000000
C -0.0538310000 -1.7518230000 0.0000000000
C 0.1188730000 -2.9474420000 0.0000000000
C 0.3255080000 -4.3846620000 0.0000000000
H -0.1216350000 -4.8459680000 0.8828680000
H -0.1216350000 -4.8459680000 -0.8828680000
H 1.3904420000 -4.6257900000 0.0000000000
