16
0 1
C -0.6894040000 -0.0253610000 0.0000000000
C -1.5466200000 -1.0548910000 0.7443140000
C -1.5466200000 -1.0548910000 -0.7443140000
H -2.4130630000 -0.6689310000 1.2602750000
H -1.0053830000 -1.8330800000 1.2611730000
H -1.0053830000 -1.8330800000 -1.2611730000
H -2.4130630000 -0.6689310000 -1.2602750000
C 0.7416090000 -0.2114830000 0.0000000000
C -1.1514580000 1.3408930000 0.0000000000
C -1.5466200000 2.4740080000 0.0000000000
C 1.9326960000 -0.3692940000 0.0000000000
H -1.8896340000 3.4781170000 0.0000000000
C 3.3771020000 -0.5481670000 0.0000000000
H 3.7084270000 -1.0983220000 0.8825940000
H 3.7084270000 -1.0983220000 -0.8825940000
H 3.8855630000 0.4176600000 0.0000000000
