16
0 1
C -1.5705950000 0.0792670000 -0.3703550000
H -1.3553360000 -0.0731300000 -1.4269410000
O -1.3355620000 -1.1941070000 0.2486160000
C -0.7098110000 1.2039240000 0.1949330000
H -1.1399540000 2.1452150000 -0.1584260000
H -0.8163230000 1.2126540000 1.2855270000
C 0.7761730000 1.1813780000 -0.1815120000
H 1.2306030000 2.0987890000 0.2033790000
H 0.8792460000 1.2081440000 -1.2692440000
H -1.5802510000 -1.1173470000 1.1754560000
H -2.6280340000 0.3372100000 -0.2758790000
C 1.5949730000 0.0010290000 0.3412020000
H 2.6535470000 0.2286180000 0.2184420000
H 1.4136170000 -0.1267180000 1.4162410000
O 1.3763730000 -1.2089530000 -0.3630070000
H 0.4719580000 -1.4825430000 -0.1590440000
