16
0 1
C 1.3988900000 -0.0519020000 0.5788740000
H 0.8474830000 -0.4882570000 1.4100020000
O 1.4253700000 -1.0793540000 -0.4196350000
C 0.7219910000 1.2274650000 0.1006330000
H 0.6263900000 1.8885000000 0.9664280000
H 1.3777910000 1.7414830000 -0.6083660000
C -0.6577360000 1.0244480000 -0.5428810000
H -0.5554420000 0.5845780000 -1.5370380000
H -1.1131920000 2.0070370000 -0.6829550000
H 1.8690500000 -0.7288590000 -1.1975780000
H 2.4113970000 0.1642230000 0.9279470000
C -1.6128500000 0.1468720000 0.2653400000
H -1.5275770000 0.3981140000 1.3303420000
H -2.6403880000 0.3561940000 -0.0331610000
O -1.4124620000 -1.2480120000 0.0726500000
H -0.5005430000 -1.3853850000 -0.2115370000
