16
0 1
C -1.8241290000 -0.6418520000 -0.1859560000
H -2.3368320000 -1.4947850000 0.2683550000
O -2.4854910000 0.5784690000 0.1523960000
C -0.3999890000 -0.5605090000 0.3299010000
H -0.4318230000 -0.4030580000 1.4111280000
H 0.0955420000 -1.5157950000 0.1537290000
C 0.3999820000 0.5605390000 -0.3298270000
H -0.0955170000 1.5158350000 -0.1536170000
H 0.4317750000 0.4031170000 -1.4110590000
H -3.3751060000 0.5400320000 -0.2071820000
H -1.8169110000 -0.7885220000 -1.2713550000
C 1.8241450000 0.6418330000 0.1859750000
H 2.3368380000 1.4947870000 -0.2683080000
H 1.8169790000 0.7884360000 1.2713840000
O 2.4854760000 -0.5784770000 -0.1524790000
H 3.3751200000 -0.5400570000 0.2070290000
