16
0 1
C 1.3700960000 -0.3408900000 0.6537870000
H 0.7641390000 -1.2258090000 0.8366610000
O 2.0602680000 -0.5966420000 -0.5700870000
C 0.4871830000 0.8997690000 0.5906140000
H -0.0664260000 0.9647890000 1.5292420000
H 1.1181240000 1.7917910000 0.5328000000
C -0.4871830000 0.8997570000 -0.5906320000
H 0.0664250000 0.9647610000 -1.5292600000
H -1.1181240000 1.7917800000 -0.5328340000
H 2.6580410000 0.1405750000 -0.7223520000
H 2.0762430000 -0.2514230000 1.4844000000
C -1.3700970000 -0.3409020000 -0.6537810000
H -2.0762430000 -0.2514510000 -1.4843970000
H -0.7641410000 -1.2258250000 -0.8366370000
O -2.0602710000 -0.5966330000 0.5700970000
H -2.6580140000 0.1406070000 0.7223690000
