16
0 1
C 2.0410920000 0.3514250000 -0.3245870000
H 2.8135190000 1.0815300000 -0.0657180000
O 2.3852160000 -0.9413450000 0.1701370000
C 0.6800410000 0.8287250000 0.1680400000
H 0.7005470000 0.8913170000 1.2614000000
H 0.5146230000 1.8461170000 -0.1986190000
C -0.4624510000 -0.0796190000 -0.2802700000
H -0.2464110000 -1.1050100000 0.0287440000
H -0.5300600000 -0.0811750000 -1.3704590000
H 2.5031710000 -0.8618750000 1.1207030000
H 2.0303610000 0.2514890000 -1.4096830000
C -1.8036300000 0.3536710000 0.2934040000
H -1.7571660000 0.3559190000 1.3883160000
H -2.0397160000 1.3689960000 -0.0250130000
O -2.8876120000 -0.4483330000 -0.1652910000
H -2.7000030000 -1.3550990000 0.0920460000
