16
0 1
C 1.8463390000 0.6150570000 0.2293910000
H 1.8738780000 0.6836080000 1.3166320000
O 2.5594860000 -0.5770060000 -0.0921670000
C 0.3999930000 0.5872300000 -0.2516050000
H -0.0522240000 1.5550120000 -0.0163950000
H 0.3906240000 0.4868760000 -1.3433920000
C -0.4107400000 -0.5424980000 0.3793720000
H -0.4711010000 -0.3864600000 1.4590350000
H 0.1086650000 -1.4887370000 0.2158200000
H 2.6367410000 -0.6156980000 -1.0494240000
H 2.3613180000 1.4928270000 -0.1720150000
C -1.8226910000 -0.6539890000 -0.1792530000
H -1.7849340000 -0.8579570000 -1.2551550000
H -2.3454650000 -1.4833510000 0.2940910000
O -2.6227860000 0.4975740000 0.0849700000
H -2.2885040000 1.2145380000 -0.4590560000
