16
0 1
C 2.0404730000 0.3480450000 0.3380730000
H 2.0258270000 0.2213670000 1.4205140000
O 2.4002820000 -0.9280930000 -0.1848600000
C 0.6777820000 0.8268420000 -0.1483920000
H 0.4968540000 1.8256990000 0.2601440000
H 0.7071750000 0.9377160000 -1.2376620000
C -0.4586990000 -0.1151720000 0.2423960000
H -0.5000670000 -0.1948930000 1.3339320000
H -0.2621130000 -1.1154260000 -0.1425180000
H 2.4898330000 -0.8336700000 -1.1372370000
H 2.8065430000 1.0926430000 0.1016430000
C -1.8064260000 0.3656200000 -0.2759980000
H -2.0212940000 1.3685430000 0.1099080000
H -1.7851760000 0.4326850000 -1.3636660000
O -2.8708020000 -0.5310820000 0.0267560000
H -2.9121930000 -0.6132780000 0.9833020000
