16
0 1
C -1.8063740000 0.3633400000 -0.2717990000
H -1.7919560000 0.4374970000 -1.3588520000
O -2.8716710000 -0.5323940000 0.0329530000
C -0.4564670000 -0.1245670000 0.2338230000
H -0.4960910000 -0.2227080000 1.3243470000
H -0.2576340000 -1.1155550000 -0.1722010000
C 0.6742640000 0.8298010000 -0.1453380000
H 0.4870260000 1.8203070000 0.2784510000
H 0.7133370000 0.9455220000 -1.2310860000
H -2.9037260000 -0.6223550000 0.9891010000
H -2.0160470000 1.3640460000 0.1230310000
C 2.0341840000 0.3540250000 0.3330310000
H 2.7940240000 1.1052700000 0.0980300000
H 2.0172670000 0.2160560000 1.4196770000
O 2.3226220000 -0.8767160000 -0.3278110000
H 3.1725480000 -1.1907990000 -0.0099320000
