16
0 1
C -0.4667370000 1.8872820000 -0.0235080000
H -1.1024470000 1.9057350000 0.8613140000
O 0.2837240000 3.0966600000 0.0235990000
C 0.4115390000 0.6435340000 -0.0062950000
H 1.0616970000 0.6523200000 -0.8870930000
H 1.0618330000 0.6887800000 0.8699260000
C -0.4115390000 -0.6435340000 0.0062950000
H -1.0618330000 -0.6887800000 -0.8699260000
H -1.0616970000 -0.6523200000 0.8870930000
H 0.8203770000 3.1329620000 -0.7726870000
H -1.1233070000 1.8683880000 -0.8998590000
C 0.4667370000 -1.8872820000 0.0235080000
H 1.1024470000 -1.9057350000 -0.8613140000
H 1.1233070000 -1.8683880000 0.8998590000
O -0.2837240000 -3.0966600000 -0.0235990000
H -0.8203770000 -3.1329620000 0.7726870000
