16
0 1
C -0.4472530000 1.8850980000 0.0000000000
H -1.0925270000 1.8860940000 0.8845430000
O 0.4178240000 3.0175360000 0.0000000000
C 0.4178240000 0.6388600000 0.0000000000
H 1.0662950000 0.6682180000 -0.8780120000
H 1.0662950000 0.6682180000 0.8780120000
C -0.4178240000 -0.6388600000 0.0000000000
H -1.0662950000 -0.6682180000 -0.8780120000
H -1.0662950000 -0.6682180000 0.8780120000
H -0.1301630000 3.8064740000 0.0000000000
H -1.0925270000 1.8860940000 -0.8845430000
C 0.4472530000 -1.8850980000 0.0000000000
H 1.0925270000 -1.8860940000 -0.8845430000
H 1.0925270000 -1.8860940000 0.8845430000
O -0.4178240000 -3.0175360000 0.0000000000
H 0.1301630000 -3.8064740000 0.0000000000
