16
0 1
C 1.9278770000 0.4120980000 -0.3074020000
H 2.1799910000 1.2619620000 0.3375360000
O 2.3832310000 -0.8088170000 0.2709090000
C 0.4349800000 0.4129450000 -0.6115130000
H 0.1984260000 1.3287650000 -1.1625000000
H 0.2006620000 -0.4296120000 -1.2613590000
C -0.4325940000 0.3479620000 0.6442750000
H -0.1935050000 1.1869390000 1.3048630000
H -0.2334340000 -0.5735020000 1.1967730000
H 1.9702030000 -0.8937210000 1.1335200000
H 2.4947860000 0.5207560000 -1.2304960000
C -1.9195880000 0.3882150000 0.3381860000
H -2.4908400000 0.4195280000 1.2708390000
H -2.1541730000 1.2919660000 -0.2346440000
O -2.2407520000 -0.7826370000 -0.4097640000
H -3.1759980000 -0.7487690000 -0.6249750000
