16
0 1
C 0.4198050000 1.9104690000 0.3992490000
H 1.0565410000 1.9109240000 1.2908560000
O 1.1989910000 2.0963550000 -0.7785000000
C -0.4198050000 0.6383540000 0.3628270000
H -1.0808210000 0.6372790000 1.2357470000
H -1.0486220000 0.6772010000 -0.5295550000
C 0.4198050000 -0.6383540000 0.3628270000
H 1.0808210000 -0.6372790000 1.2357470000
H 1.0486220000 -0.6772010000 -0.5295550000
H 1.8678670000 1.4076010000 -0.7980330000
H -0.2287020000 2.7830730000 0.4565290000
C -0.4198050000 -1.9104690000 0.3992490000
H 0.2287020000 -2.7830730000 0.4565290000
H -1.0565410000 -1.9109240000 1.2908560000
O -1.1989910000 -2.0963550000 -0.7785000000
H -1.8678670000 -1.4076010000 -0.7980330000
