16
0 1
C 2.0347310000 0.3548220000 0.3280400000
H 2.0169820000 0.2128540000 1.4138650000
O 2.3257880000 -0.8731830000 -0.3375430000
C 0.6740760000 0.8297780000 -0.1493060000
H 0.4946390000 1.8277560000 0.2599850000
H 0.7096750000 0.9283500000 -1.2370760000
C -0.4559020000 -0.1137440000 0.2562490000
H -0.5163790000 -0.1749240000 1.3454320000
H -0.2504240000 -1.1170020000 -0.1147480000
H 3.1583090000 -1.2055000000 0.0066590000
H 2.7941290000 1.1074750000 0.0956880000
C -1.7983960000 0.3477910000 -0.2765100000
H -2.0133010000 1.3610480000 0.0810730000
H -1.7705230000 0.3774410000 -1.3709070000
O -2.7900650000 -0.5693110000 0.1808670000
H -3.6359420000 -0.2894240000 -0.1773990000
