16
0 1
C 1.8625500000 0.1173630000 -0.3476340000
H 2.8861090000 0.4383000000 -0.1321280000
O 1.6916040000 -1.2557480000 0.0064820000
C 0.8728860000 1.0530490000 0.3373850000
H 0.9299160000 0.8983960000 1.4202900000
H 1.2074790000 2.0782920000 0.1578320000
C -0.5766260000 0.9246380000 -0.1352300000
H -0.6291370000 1.0963780000 -1.2128030000
H -1.1776260000 1.7044740000 0.3367910000
H 1.8839950000 -1.3337630000 0.9449170000
H 1.7262750000 0.1557630000 -1.4285480000
C -1.2366280000 -0.4075450000 0.1799240000
H -0.7798140000 -1.2124940000 -0.3950870000
H -1.1084460000 -0.6401900000 1.2434560000
O -2.6222760000 -0.2662420000 -0.1405030000
H -3.0264640000 -1.1342660000 -0.0692220000
