16
0 1
C 1.2552010000 -0.4124670000 0.2271480000
H 0.7657950000 -1.2625770000 -0.2359880000
O 2.6148560000 -0.4605850000 -0.2049030000
C 0.5797700000 0.8934980000 -0.1798590000
H 1.1809470000 1.7200460000 0.2125840000
H 0.6062360000 0.9795360000 -1.2688340000
C -0.8568150000 1.0636560000 0.3237890000
H -1.1750430000 2.0904700000 0.1290910000
H -0.8984170000 0.9186480000 1.4061630000
H 3.0761160000 0.2669580000 0.2209890000
H 1.1839810000 -0.5451100000 1.3118550000
C -1.8777180000 0.1407390000 -0.3200310000
H -2.8859070000 0.4775030000 -0.0611660000
H -1.7764800000 0.1796970000 -1.4100370000
O -1.6619370000 -1.1863700000 0.1614210000
H -2.3032120000 -1.7620870000 -0.2630840000
