16
0 1
C -1.2698290000 -0.3859000000 0.2576330000
H -1.2276090000 -0.4805550000 1.3434230000
O -2.6606560000 -0.3611260000 -0.0655740000
C -0.5674810000 0.8992050000 -0.1712840000
H -0.5718670000 0.9666260000 -1.2641940000
H -1.1674880000 1.7335500000 0.1969870000
C 0.8699760000 1.0488190000 0.3366450000
H 0.8974950000 0.9003340000 1.4216330000
H 1.1991040000 2.0767890000 0.1619900000
H -2.7313010000 -0.4119310000 -1.0222830000
H -0.7812890000 -1.2602570000 -0.1710300000
C 1.8916630000 0.1277460000 -0.3202970000
H 1.8182120000 0.2061720000 -1.4051680000
H 2.9020490000 0.4366340000 -0.0355110000
O 1.6964850000 -1.2557120000 -0.0291400000
H 1.8300920000 -1.3718820000 0.9156860000
