16
0 1
C 1.7139430000 -0.0175120000 0.5651370000
H 1.2458200000 -0.4923570000 1.4260570000
O 1.9351050000 -1.0721880000 -0.3682340000
C 0.8254000000 1.0933510000 0.0128380000
H 0.6467370000 1.8150440000 0.8156110000
H 1.3729160000 1.6306960000 -0.7669300000
C -0.5064170000 0.6057440000 -0.5607050000
H -0.3304620000 -0.0367110000 -1.4231530000
H -1.0873060000 1.4621310000 -0.9071160000
H 2.3740430000 -0.6921970000 -1.1345250000
H 2.6642430000 0.4051130000 0.9053310000
C -1.3499560000 -0.1574810000 0.4442080000
H -0.8727950000 -1.1091720000 0.6913080000
H -1.4499310000 0.4257550000 1.3673810000
O -2.6269020000 -0.3775470000 -0.1532300000
H -3.1267110000 -0.9550300000 0.4288810000
