16
0 1
C 1.7139450000 -0.0175090000 0.5651330000
H 1.2458280000 -0.4923410000 1.4260640000
O 1.9350920000 -1.0721980000 -0.3682280000
C 0.8254030000 1.0933530000 0.0128310000
H 0.6467490000 1.8150520000 0.8156000000
H 1.3729170000 1.6306900000 -0.7669440000
C -0.5064180000 0.6057500000 -0.5607040000
H -0.3304700000 -0.0367100000 -1.4231500000
H -1.0873040000 1.4621390000 -0.9071140000
H 2.3740480000 -0.6922250000 -1.1345170000
H 2.6642510000 0.4051140000 0.9053130000
C -1.3499560000 -0.1574710000 0.4442130000
H -0.8727840000 -1.1091520000 0.6913320000
H -1.4499490000 0.4257790000 1.3673760000
O -2.6268930000 -0.3775640000 -0.1532370000
H -3.1267280000 -0.9549830000 0.4289150000
