16
0 1
C 1.4000660000 -0.0641380000 0.4924260000
H 0.9179620000 -0.9158600000 0.9704790000
O 2.6238330000 -0.5769370000 -0.0251920000
C 0.5108040000 0.5304450000 -0.5928450000
H 1.0593720000 1.3380870000 -1.0857890000
H 0.3302230000 -0.2258370000 -1.3595670000
C -0.8160970000 1.0839590000 -0.0663180000
H -1.3514970000 1.5656310000 -0.8859490000
H -0.6213790000 1.8530150000 0.6874820000
H 3.0830230000 0.1521890000 -0.4508930000
H 1.5861570000 0.6834610000 1.2716650000
C -1.7344330000 0.0313500000 0.5495220000
H -1.2811610000 -0.4062010000 1.4439320000
H -2.6671550000 0.5008030000 0.8577790000
O -2.1092410000 -0.9865300000 -0.3746850000
H -1.3343310000 -1.5272470000 -0.5468360000
