16
0 1
C 1.2494140000 -0.4157790000 0.2112360000
H 0.7691220000 -1.2507830000 -0.2882330000
O 2.6157760000 -0.4504410000 -0.1959300000
C 0.5792300000 0.9025930000 -0.1633010000
H 1.1785580000 1.7168850000 0.2567610000
H 0.6128870000 1.0185750000 -1.2490440000
C -0.8615500000 1.0579070000 0.3318440000
H -1.1859090000 2.0861260000 0.1502620000
H -0.9028840000 0.9110880000 1.4165850000
H 3.0650330000 0.2760880000 0.2444190000
H 1.1610390000 -0.5817740000 1.2914530000
C -1.8753270000 0.1328950000 -0.3331030000
H -2.8898100000 0.4611910000 -0.0874770000
H -1.7673590000 0.1803900000 -1.4167300000
O -1.7055080000 -1.2435200000 0.0030090000
H -1.8734210000 -1.3317990000 0.9453140000
