16
0 1
C 1.2868180000 -0.3674320000 0.2962650000
H 0.7856760000 -1.2739980000 -0.0400400000
O 2.6645800000 -0.3656580000 -0.0832590000
C 0.5626100000 0.8772730000 -0.2084730000
H 1.1636470000 1.7406340000 0.0832110000
H 0.5407350000 0.8656280000 -1.3035380000
C -0.8629860000 1.0534570000 0.3257110000
H -1.1844770000 2.0800600000 0.1347760000
H -0.8763610000 0.9149410000 1.4096740000
H 2.6964930000 -0.4774670000 -1.0367960000
H 1.2856220000 -0.3747360000 1.3860380000
C -1.9047000000 0.1368940000 -0.2919860000
H -2.9003280000 0.4446700000 0.0410660000
H -1.8711480000 0.2246330000 -1.3835990000
O -1.6403840000 -1.2066130000 0.1135440000
H -2.3238780000 -1.7673390000 -0.2621790000
