16
0 1
C 1.7152640000 -0.0007590000 0.5515400000
H 1.2512450000 -0.4699330000 1.4249100000
O 1.9171090000 -0.9589470000 -0.4858620000
C 0.8221070000 1.1013200000 0.0042440000
H 0.6423300000 1.8206380000 0.8080950000
H 1.3669290000 1.6284510000 -0.7806120000
C -0.5096610000 0.6035630000 -0.5614620000
H -0.3294700000 -0.0379410000 -1.4228660000
H -1.0955360000 1.4572270000 -0.9062310000
H 2.4983660000 -1.6436990000 -0.1459810000
H 2.6683740000 0.4294360000 0.8731390000
C -1.3467400000 -0.1590810000 0.4491090000
H -0.8624120000 -1.1061280000 0.7021330000
H -1.4501540000 0.4283550000 1.3693070000
O -2.6233110000 -0.3941540000 -0.1438210000
H -3.1258680000 -0.9518590000 0.4549900000
