16
0 1
C -0.2582620000 1.5490670000 -0.4202580000
H -1.3529740000 1.5083440000 -0.4477540000
O 0.2011480000 2.8963500000 -0.3778790000
C 0.2582620000 0.7206130000 0.7507540000
H 1.3504340000 0.7335800000 0.7361520000
H -0.0501660000 1.2084100000 1.6798750000
C -0.2582620000 -0.7206130000 0.7507540000
H -1.3504340000 -0.7335800000 0.7361520000
H 0.0501660000 -1.2084100000 1.6798750000
H -0.1255770000 3.2851690000 0.4380340000
H 0.1080120000 1.1547200000 -1.3662540000
C 0.2582620000 -1.5490670000 -0.4202580000
H -0.1080120000 -1.1547200000 -1.3662540000
H 1.3529740000 -1.5083440000 -0.4477540000
O -0.2011480000 -2.8963500000 -0.3778790000
H 0.1255770000 -3.2851690000 0.4380340000
