16
0 1
C 1.5440530000 -0.4117350000 -0.3075700000
H 1.4900690000 -0.4159720000 -1.3962740000
O 2.9304580000 -0.3031010000 0.0045100000
C 0.7296110000 0.7521270000 0.2450580000
H 0.7626940000 0.7272470000 1.3394130000
H 1.2192420000 1.6767090000 -0.0640080000
C -0.7265110000 0.7637030000 -0.2256300000
H -0.7674770000 0.7875750000 -1.3167580000
H -1.2178450000 1.6708190000 0.1291710000
H 3.0104800000 -0.3165760000 0.9620830000
H 1.1477270000 -1.3683770000 0.0455910000
C -1.5373900000 -0.4218990000 0.2688330000
H -1.1627360000 -1.3543480000 -0.1625470000
H -1.4517110000 -0.4961780000 1.3590020000
O -2.8912760000 -0.2010750000 -0.1197980000
H -3.4024790000 -0.9706660000 0.1424830000
