16
0 1
C -0.2570960000 1.5568630000 -0.4119600000
H -1.3471600000 1.5411420000 -0.4240810000
O 0.1012440000 2.9310160000 -0.2956990000
C 0.2570960000 0.7212650000 0.7549980000
H 1.3520110000 0.7176450000 0.7419680000
H -0.0455970000 1.2181310000 1.6778670000
C -0.2570960000 -0.7212650000 0.7549980000
H -1.3520110000 -0.7176450000 0.7419680000
H 0.0455970000 -1.2181310000 1.6778670000
H 1.0606220000 2.9807410000 -0.3215520000
H 0.0889060000 1.1510580000 -1.3668440000
C 0.2570960000 -1.5568630000 -0.4119600000
H -0.0889060000 -1.1510580000 -1.3668440000
H 1.3471600000 -1.5411420000 -0.4240810000
O -0.1012440000 -2.9310160000 -0.2956990000
H -1.0606220000 -2.9807410000 -0.3215520000
