16
0 1
C -1.3590100000 -0.1771680000 -0.4540550000
H -0.8373160000 -1.1172700000 -0.6144780000
O -2.5748210000 -0.5135220000 0.2076330000
C -0.4989510000 0.7890380000 0.3558640000
H -1.0489000000 1.7281510000 0.4597920000
H -0.3764740000 0.3914160000 1.3674870000
C 0.8708310000 1.0551430000 -0.2859020000
H 1.2003760000 2.0707060000 -0.0537800000
H 0.7885720000 0.9911810000 -1.3738260000
H -3.0805630000 0.2971450000 0.3108300000
H -1.5562340000 0.2544470000 -1.4412060000
C 1.9663300000 0.1054210000 0.1879690000
H 2.8963000000 0.3267860000 -0.3340900000
H 2.1433670000 0.2555510000 1.2577180000
O 1.6895170000 -1.2680650000 -0.0816110000
H 1.0781090000 -1.5800110000 0.5901220000
