18
0 1
O -2.1675526522 -2.0544029015 -0.4337647119
H -1.3531471666 -2.5389321875 -0.6352882840
H -1.8715507614 -1.1308550588 -0.5712015155
O -0.6716977019 0.2944490104 -0.4731366656
H 0.0613027114 -0.3301277055 -0.5823914443
H -0.6662754913 0.4977657773 0.4757800816
O 0.7338021938 -2.2712610461 -0.4178562959
H 1.5224027002 -2.7112002511 -0.7469640553
H 0.7912691510 -2.3178568450 0.5623860615
O 0.5477615506 -2.2081713860 2.3095474506
H 0.5487271572 -1.2696791005 2.5435981222
H -0.3848259533 -2.4450162628 2.4407198618
O -2.3039695896 -2.0206189589 2.2137143494
H -2.3596274689 -2.0978839796 1.2226652906
H -3.1107672987 -2.4106894763 2.5610245710
O -0.8889898251 0.3442982323 2.4253171742
H -1.1868458820 1.0730525498 2.9769993607
H -1.5792840937 -0.3439096032 2.4908364462
