18
0 1
O -1.0237806610 1.6056744956 -0.4616149281
H -0.0369228580 1.6954637530 -0.3768366596
H -1.3306840648 2.4579446838 -0.7840190888
O -0.0945909351 -1.9278797407 0.4941911243
H -0.5261654934 -1.3487143224 1.1457854165
H -0.5852817730 -1.7402789360 -0.3255772012
O 1.6169958427 1.6953820155 -0.1974021704
H 1.9550978906 2.1035479736 0.6049103827
H 1.9435966478 0.7625327762 -0.1567930988
O 2.3374567197 -0.8688616882 0.0568820395
H 2.7769669270 -1.3702958458 -0.6347140298
H 1.4832464708 -1.3394248515 0.2247711958
O -1.3266682854 0.1881460818 1.9554945044
H -2.1889270248 0.2005808693 2.3791529828
H -1.3998060114 0.7899068371 1.1938485254
O -1.3291420145 -0.8520927532 -1.8049168730
H -1.3266477928 0.0619636988 -1.4663878437
H -2.2129685601 -0.9966701436 -2.1527065672
