18
0 1
O -0.9571470293 -2.1163862508 -0.5097688977
H -1.1365470085 -2.8878661184 -1.0527737817
H 0.0223654232 -2.0733484870 -0.4313264184
O 1.7411065688 -1.9523740288 -0.3071884771
H 2.0998035503 -1.0372031993 -0.3392949519
H 2.1662966769 -2.3576701983 0.4532040041
O 2.7156250622 0.5786511314 -0.3904946911
H 2.2067028076 1.2445685592 0.1225823907
H 2.8510755864 0.9727316261 -1.2558953157
O -2.3420229922 0.2110043850 -0.6798489605
H -2.4055092906 0.4542090138 -1.6068875797
H -1.8500849338 -0.6395598247 -0.6664706724
O 1.2791521270 2.3181117914 1.1176464996
H 1.4635456083 3.2585724038 1.1788464556
H 0.2984024012 2.2445770088 1.1042990346
O -1.4211120556 2.0931586767 1.0445234954
H -1.7620505485 1.4146932189 0.4194822603
H -1.8904342427 1.9302717378 1.8669505474
