22
0 1
C -0.0158206050 0.1191622430 -0.0103333500
C 0.0013254460 0.1228671330 1.5214437860
C 1.4155202020 0.1201434590 2.1097950410
H 1.3884126140 0.1263278010 3.2032802910
H 1.9708268970 -0.7685724010 1.7906534140
H 1.9780559660 1.0012614820 1.7844165890
H -1.0401957430 0.1229457340 -0.3941971850
H 0.4946383220 1.0008968140 -0.4109430760
H 0.4894940540 -0.7687587670 -0.4052503720
H -0.5392081670 1.0026856400 1.8860467230
H -0.5457196550 -0.7518995450 1.8909924480
C 0.7049402510 3.8771539260 1.0473636390
C 0.7222578030 3.8808519770 2.5791535160
C -0.7092265360 3.8798757930 0.4589541730
H 1.7466772220 3.8768981110 2.9628614160
H 0.2171347380 4.7688230870 2.9741980600
H 0.2117429070 2.9991503870 2.9798249860
H -0.6819981450 3.8735285590 -0.6345325280
H -1.2718106510 2.9988020270 0.7843684360
H -1.2645394580 4.7686343820 0.7778870040
H 1.2454525150 2.9973061240 0.6827685730
H 1.2520170210 4.7518950300 0.6777874190
