14
0 1
C 2.1047885880 3.8701154330 3.1919452170
C 0.7004036090 3.8862586400 2.5819487950
C 0.7054768820 3.8861202090 1.0485668340
C -0.6989085920 3.8701430590 0.4385728730
H 2.0614526640 3.8629268440 4.2847068930
H 2.6596757690 2.9816940740 2.8736098680
H 2.6768893310 4.7515083930 2.8825568500
H 0.1563672340 4.7693979370 2.9397662790
H 0.1399616170 3.0133336620 2.9368809680
H -0.6554503660 3.8628861690 -0.6542590630
H -1.2539319020 2.9817741420 0.7568429740
H -1.2708930640 4.7515651460 0.7478451730
H 1.2495966230 4.7691546110 0.6906374690
H 1.2658033500 3.0131157820 0.6938043770
