28
0 1
C -0.0297168830 0.1301229920 -0.0083119630
C -0.0057853300 0.1134962150 1.5229501720
C 1.4116973690 0.1134786480 2.1073936200
C 1.4360812540 0.1301801030 3.6386584310
H 2.4619834270 0.1374751730 4.0179623920
H 0.9293339220 1.0186803000 4.0287510990
H 0.9308906070 -0.7509658140 4.0485864010
H 1.9511931070 -0.7699114140 1.7434591140
H 1.9548054140 0.9862545320 1.7264634960
H -1.0556187720 0.1375891320 -0.3879911570
H 0.4772696550 1.0184746050 -0.3983626380
H 0.4753456650 -0.7511212910 -0.4179437840
H -0.5453667150 -0.7698293020 1.8867829520
H -0.5488764590 0.9863540180 1.9038263580
C 2.1047885880 3.8701154330 3.1919452170
C 0.7004036090 3.8862586400 2.5819487950
C 0.7054768820 3.8861202090 1.0485668340
C -0.6989085920 3.8701430590 0.4385728730
H 2.0614526640 3.8629268440 4.2847068930
H 2.6596757690 2.9816940740 2.8736098680
H 2.6768893310 4.7515083930 2.8825568500
H 0.1563672340 4.7693979370 2.9397662790
H 0.1399616170 3.0133336620 2.9368809680
H -0.6554503660 3.8628861690 -0.6542590630
H -1.2539319020 2.9817741420 0.7568429740
H -1.2708930640 4.7515651460 0.7478451730
H 1.2495966230 4.7691546110 0.6906374690
H 1.2658033500 3.0131157820 0.6938043770
