17
0 1
C -0.0239148590 0.1257043240 -0.0183409330
C -0.0023859690 0.1181716560 1.5130670380
C 1.4128027970 0.1065656770 2.1025501910
C 1.4323058600 0.1180742130 3.6355571750
C 2.8453481190 0.1223303160 4.2257009080
H -1.0492965890 0.1319327040 -0.3991588880
H 0.4846350000 1.0108130150 -0.4136326140
H 0.4804369830 -0.7588705130 -0.4215087510
H -0.5515808860 -0.7576591150 1.8804809960
H -0.5378561820 0.9983866510 1.8876761290
H 1.9664743470 0.9774310940 1.7288203050
H 1.9495991730 -0.7804918870 1.7397164780
H 2.8169335580 0.1299326280 5.3190895240
H 3.4050629640 -0.7642393820 3.9087607580
H 3.4043348570 1.0054746970 3.8999716830
H 0.8870044980 0.9995357580 3.9925054620
H 0.8844721490 -0.7563372720 4.0081604940
