20
0 1
C -0.0307545230 0.1287253040 -0.0182151380
C -0.0103044460 0.1159408280 1.5131886570
C 1.4051850090 0.1074268930 2.1014204610
C 1.4284207230 0.1088099430 3.6338532250
C 2.8435725250 0.1141319990 4.2229319780
C 2.8627409660 0.1278910690 5.7543027690
H -1.0558137690 0.1361885680 -0.4002299510
H 0.4782813430 1.0151092690 -0.4099514220
H 0.4741141890 -0.7544170430 -0.4239330220
H -0.5564008820 -0.7631811380 1.8771951110
H -0.5487808890 0.9929072780 1.8908314530
H 3.8874313630 0.1331183200 6.1372606990
H 2.3555197920 1.0158047750 6.1448094050
H 2.3553382820 -0.7537698660 6.1600017560
H 3.3846036960 0.9894337760 3.8448973670
H 3.3876717700 -0.7666558060 3.8598707540
H 1.9534947240 0.9837723520 1.7327206570
H 1.9457096360 -0.7741465040 1.7312645960
H 0.8825931430 0.9874574090 4.0009417830
H 0.8850761180 -0.7704134370 4.0056227570
