9
0 1
C 0.1555838250 -0.2049062490 -0.0021308420
C 0.1557646930 -0.2048818050 1.5062650550
C 1.4441867980 0.0098486010 0.7519084900
H 0.0168352470 -1.1520930060 -0.5099372290
H -0.2834435330 0.6462673500 -0.5092086040
H -0.2831422270 0.6463083650 2.0134197180
H 0.0171394150 -1.1520518720 2.0141366350
H 1.8727469260 1.0053435040 0.7518411350
H 2.1724715990 -0.7926890420 0.7518333190
