12
0 1
C 0.7753916870 3.9080224170 -0.3262163590
C -0.3261943520 3.9080178640 0.7753450820
C 0.7753666470 3.9080235280 1.8769304110
C 1.8769523090 3.9080173690 0.7753691220
H 0.7753989530 4.7928056330 -0.9669978190
H 0.7753984460 3.0234964800 -0.9667575730
H -0.9667244720 3.0234846080 0.7753392350
H -0.9669869890 4.7927933120 0.7753367260
H 0.7753601590 3.0234990930 2.5174718260
H 0.7753605270 4.7928080550 2.5177108410
H 2.5174819120 3.0234838800 0.7753781770
H 2.5177450610 4.7927927180 0.7753767420
