24
0 1
C -0.0037393740 0.0922406790 -0.0037284060
C -0.0037446970 0.0922389580 1.5545014100
C 1.5544854220 0.0922423850 1.5545063620
C 1.5544904830 0.0922366970 -0.0037229510
H -0.4574682330 0.9762070880 -0.4574633350
H -0.4567930550 -0.7927461640 -0.4567840930
H -0.4567949220 -0.7927534850 2.0075501230
H -0.4574829850 0.9762000930 2.0082366130
H 2.0075386660 -0.7927445290 2.0075633720
H 2.0082157660 0.9762088880 2.0082381960
H 2.0075410330 -0.7927565710 -0.4567693850
H 2.0082290060 0.9761970030 -0.4574593160
C 0.7753916870 3.9080224170 -0.3262163590
C -0.3261943520 3.9080178640 0.7753450820
C 0.7753666470 3.9080235280 1.8769304110
C 1.8769523090 3.9080173690 0.7753691220
H 0.7753989530 4.7928056330 -0.9669978190
H 0.7753984460 3.0234964800 -0.9667575730
H -0.9667244720 3.0234846080 0.7753392350
H -0.9669869890 4.7927933120 0.7753367260
H 0.7753601590 3.0234990930 2.5174718260
H 0.7753605270 4.7928080550 2.5177108410
H 2.5174819120 3.0234838800 0.7753781770
H 2.5177450610 4.7927927180 0.7753767420
