15
0 1
C 2.0231320520 3.8367409280 -0.3493194830
C 3.5079745450 3.4164042680 -0.5634295750
C 1.7613995570 3.7278347010 1.1772110780
C 3.1566876470 3.6511941050 1.8240504410
C 3.9846797970 2.8645520570 0.7964277540
H 4.1099723660 4.2882161220 -0.8401603000
H 3.6200148650 2.6832624240 -1.3664452580
H 1.3389543900 3.1926822460 -0.9085952050
H 1.8565818790 4.8574087890 -0.7040699940
H 5.0628706980 2.9744070120 0.9402961490
H 3.7502818340 1.7968016490 0.8765505480
H 1.2080856040 2.8097954360 1.3968717760
H 1.1660492120 4.5607189220 1.5598171460
H 3.1385043000 3.1781266670 2.8098180440
H 3.5746918770 4.6579353890 1.9468825010
