36
0 1
C 0.0945558390 0.2040250850 -0.0961562770
C 0.0828872470 0.1827860490 1.4396351770
C 1.5068511330 0.1536089100 2.0143540100
C 2.3232294570 -1.0139743600 1.4400258510
C 2.3348542260 -0.9924915030 -0.0957348160
C 0.9106551150 -0.9641232320 -0.6699219290
H 2.8786831540 -0.1016113750 -0.4386098690
H 2.8778025440 -1.8628531430 -0.4795646340
H -0.4607272640 1.0524124100 1.8239434140
H -0.4610900550 -0.7066893580 1.7826497000
H 3.3481638700 -0.9813258870 1.8247440690
H 1.8867956820 -1.9606545920 1.7827370350
H 0.9466000540 -0.8978349480 -1.7623699660
H 0.4059662800 -1.9081288140 -0.4271221500
H -0.9305671750 0.1706958450 -0.4805824630
H 0.5323828150 1.1512222570 -0.4393033130
H 1.4692718230 0.0847286610 3.1066502750
H 2.0122546450 1.0987134810 1.7723020080
C -1.1003159350 -4.7353733080 0.5922206910
C 0.3236625250 -4.7645064530 1.1669054430
C 0.3120376450 -4.7857317830 2.7026978640
C -0.5041008250 -3.6176213860 3.2764862600
C -1.9283126180 -3.5893089930 2.7023287660
C -1.9167190630 -3.5678170820 1.1665682510
H 0.8676090710 -3.8750230820 0.8238646770
H 0.8672889890 -5.6341237420 0.7825931950
H -2.4712890200 -2.7189724110 3.0861754850
H -2.4720979360 -4.4802139650 3.0452086380
H 1.3371708890 -4.7523504550 3.0870925230
H -0.1257327000 -5.7329478250 3.0458646370
H -1.0627640770 -4.6664914910 -0.5000764080
H -1.6056847950 -5.6804935670 0.8342836670
H -2.9416604280 -3.6004981080 0.7818711890
H -1.4803222190 -2.6211209820 0.8238520750
H -0.5400206670 -3.6839215880 4.3689345430
H 0.0005397740 -2.6735902650 3.0336863820
