18
0 1
C -1.1003159350 -4.7353733080 0.5922206910
C 0.3236625250 -4.7645064530 1.1669054430
C 0.3120376450 -4.7857317830 2.7026978640
C -0.5041008250 -3.6176213860 3.2764862600
C -1.9283126180 -3.5893089930 2.7023287660
C -1.9167190630 -3.5678170820 1.1665682510
H 0.8676090710 -3.8750230820 0.8238646770
H 0.8672889890 -5.6341237420 0.7825931950
H -2.4712890200 -2.7189724110 3.0861754850
H -2.4720979360 -4.4802139650 3.0452086380
H 1.3371708890 -4.7523504550 3.0870925230
H -0.1257327000 -5.7329478250 3.0458646370
H -1.0627640770 -4.6664914910 -0.5000764080
H -1.6056847950 -5.6804935670 0.8342836670
H -2.9416604280 -3.6004981080 0.7818711890
H -1.4803222190 -2.6211209820 0.8238520750
H -0.5400206670 -3.6839215880 4.3689345430
H 0.0005397740 -2.6735902650 3.0336863820
