10
0 1
C -0.0984021050 3.4284931660 1.5660084350
C 1.3098228550 3.4286018210 1.9167701620
C -1.0961054100 3.4118259990 2.4624883270
C 2.3075438360 3.4113935250 1.0203041970
H -2.1366598670 3.4065880480 2.1570490390
H 3.3480877070 3.4063367920 1.3257684770
H 1.5437394150 3.4272872240 2.9797657540
H -0.3323173130 3.4265294350 0.5030158650
H 2.1060711620 3.3982425260 -0.0474983420
H -0.8946208100 3.3993108640 3.5303022180
