16
0 1
C -0.2059239350 -0.2653162700 -0.0050588590
C 1.0855470270 0.0736608390 -0.0039263980
C 1.0855829230 0.0736802590 1.5724528990
C -0.2058892360 -0.2652965360 1.5736521350
H -0.9488571460 -0.4594798480 -0.7685265010
H 1.8296057850 0.2788139010 -0.7621844620
H 1.8296723540 0.2788571370 2.3306734470
H -0.9487880550 -0.4594378250 2.3371578950
C 1.5986171020 3.4262404180 1.5724324600
C 1.5986679220 3.4262714440 -0.0039469340
C 2.8901003950 3.7653951240 -0.0050654860
C 2.8900505310 3.7653639930 1.5736454000
H 0.8546400630 3.2210394540 -0.7622121580
H 3.6330179840 3.9596489870 -0.7685238110
H 3.6329192410 3.9595840050 2.3371626990
H 0.8545410460 3.2209749200 2.3306436720
