20
0 1
C 16.6500000000 19.5160000000 5.5500000000
C 18.0590000000 18.9530000000 5.9450000000
O 19.0830000000 19.9090000000 5.6100000000
C 18.2400000000 17.7060000000 5.0490000000
C 17.4100000000 17.9720000000 3.8100000000
C 17.4860000000 17.3720000000 2.5270000000
C 16.6060000000 17.8610000000 1.5470000000
C 15.7030000000 18.8920000000 1.8540000000
C 15.6540000000 19.4700000000 3.1230000000
C 16.5130000000 18.9970000000 4.1070000000
H 15.8560000000 19.1180000000 6.2090000000
H 18.1780000000 18.6570000000 6.9920000000
H 17.8520000000 16.8360000000 5.5840000000
H 19.2920000000 17.5530000000 4.8500000000
H 18.1980000000 16.5520000000 2.2420000000
H 16.6140000000 17.4560000000 0.5230000000
H 15.0320000000 19.2750000000 1.0920000000
H 14.9690000000 20.2920000000 3.3270000000
H 19.9660000000 19.5400000000 5.8760000000
H 16.5490800000 20.5991700000 5.7129620000
