13
1 1
C 23.7350000000 21.9040000000 8.6450000000
H 24.3390000000 21.6400000000 9.5150000000
H 23.0440000000 22.7000000000 8.9450000000
N 22.9690000000 20.7170000000 8.2470000000
H 22.8510000000 20.5620000000 7.2490000000
C 22.4030000000 19.8510000000 9.0700000000
N 22.4030000000 20.0500000000 10.3660000000
H 22.8270000000 20.8830000000 10.7470000000
H 21.9320000000 19.4190000000 10.9810000000
N 21.8200000000 18.7760000000 8.6150000000
H 21.7680000000 18.6150000000 7.6040000000
H 21.3370000000 18.1440000000 9.2140000000
H 24.3834000000 22.2556600000 7.8289690000
