7
-1 1
C 20.0880000000 16.6610000000 -0.3980000000
H 19.0450000000 16.6020000000 -0.0820000000
H 20.1830000000 16.2440000000 -1.3870000000
C 20.9020000000 15.7070000000 0.5050000000
O 21.9100000000 15.1370000000 0.0310000000
O 20.3770000000 15.2270000000 1.5420000000
H 20.2998800000 17.7338900000 -0.5163442000
