17
0 1
C 14.2580000000 24.0290000000 5.0930000000
O 15.5100000000 24.5380000000 4.6410000000
C 13.1220000000 24.9750000000 4.5780000000
N 11.8620000000 24.2450000000 4.3590000000
C 11.7820000000 23.7810000000 2.9480000000
C 10.6270000000 24.8750000000 4.9380000000
H 15.4200000000 24.7030000000 3.6670000000
H 14.0270000000 23.0280000000 4.7540000000
H 12.9330000000 25.7940000000 5.2570000000
H 13.4010000000 25.4050000000 3.5960000000
H 10.4950000000 25.9680000000 4.6940000000
H 12.0090000000 24.6060000000 2.2860000000
H 12.5340000000 23.0110000000 2.8410000000
H 10.6090200000 24.8340000000 6.0370890000
H 9.7921440000 24.2376700000 4.6111630000
H 10.8289100000 23.3462200000 2.6124560000
H 14.3657600000 23.8573100000 6.1741610000
