13
0 1
C 4.2900000000 24.1030000000 10.0860000000
O 4.3540000000 23.1340000000 10.8490000000
N 4.5070000000 24.0100000000 8.7770000000
H 4.4710000000 24.8140000000 8.1660000000
C 4.8580000000 22.7550000000 8.1540000000
H 4.7990000000 21.9670000000 8.8850000000
H 4.1360000000 22.5820000000 7.3640000000
C 6.2760000000 22.7660000000 7.6110000000
O 6.6470000000 23.7130000000 6.9210000000
N 7.0660000000 21.7400000000 7.9380000000
H 6.7540000000 21.0120000000 8.5730000000
H 4.0547810000 25.0967100000 10.4949200000
H 8.0283040000 21.5490600000 7.4404930000
