12
0 1
C 16.6500000000 19.5160000000 5.5500000000
H 15.8560000000 19.1180000000 6.2090000000
H 17.3810000000 21.5040000000 5.8040000000
N 16.5150000000 20.9650000000 5.7680000000
C 15.4180000000 21.4880000000 6.3530000000
O 14.3700000000 20.8720000000 6.4670000000
C 15.5710000000 22.8470000000 6.9860000000
H 16.5000000000 23.2950000000 6.6520000000
H 14.7439000000 23.5176400000 6.7100630000
H 15.6178900000 22.7290700000 8.0786540000
H 17.6385300000 19.1210100000 5.8271240000
H 16.5521200000 19.1451900000 4.5190210000
