12
0 1
C 18.7140000000 22.1950000000 2.7420000000
H 18.3790000000 21.5870000000 3.5770000000
N 18.7970000000 23.5710000000 3.2090000000
H 18.8630000000 24.2830000000 2.4880000000
C 18.8410000000 23.9100000000 4.5080000000
O 18.8370000000 23.0730000000 5.4100000000
C 18.9570000000 25.3890000000 4.8940000000
H 18.0620000000 25.6850000000 5.4330000000
H 19.8190000000 25.5250000000 5.5420000000
H 19.0900100000 26.0593800000 4.0320840000
H 19.7095400000 21.8208700000 2.4610430000
H 17.9847900000 22.1381400000 1.9204000000
