14
0 1
C 16.0560000000 13.9130000000 3.7010000000
H 16.1590000000 14.9560000000 4.0330000000
C 17.2370000000 13.5290000000 2.7860000000
H 17.2420000000 14.1960000000 1.9030000000
H 18.1720000000 13.6450000000 3.3380000000
H 17.1190000000 12.4900000000 2.4530000000
C 14.7350000000 13.7490000000 2.9320000000
H 14.5970000000 12.7020000000 2.6610000000
H 13.8980000000 14.0590000000 3.5530000000
C 14.7360000000 14.5790000000 1.6700000000
H 13.7890000000 14.4180000000 1.1680000000
H 14.8620000000 15.6240000000 1.9550000000
H 15.5730000000 14.2450000000 1.0500000000
H 16.0359500000 13.2583900000 4.5847910000
