14
0 1
C 10.3740000000 21.4430000000 10.3110000000
H 9.9340000000 21.4870000000 9.3050000000
C 9.2800000000 21.8640000000 11.2830000000
H 8.9820000000 22.8920000000 11.0470000000
H 8.4380000000 21.1840000000 11.1710000000
H 9.6880000000 21.8130000000 12.2980000000
C 11.5620000000 22.4240000000 10.3740000000
H 12.4280000000 21.9440000000 9.9220000000
H 11.3200000000 23.3170000000 9.8010000000
C 11.9440000000 22.8550000000 11.7870000000
H 12.7930000000 23.5370000000 11.7210000000
H 11.0850000000 23.3620000000 12.2460000000
H 12.2100000000 21.9670000000 12.3700000000
H 10.7096600000 20.4167800000 10.5212300000
