8
0 1
C 12.7460000000 22.1680000000 -1.0900000000
H 12.8180000000 23.1780000000 -0.6990000000
H 11.9170000000 22.1280000000 -1.8010000000
C 12.4380000000 21.2130000000 0.0670000000
H 11.4960000000 21.5260000000 0.5360000000
H 12.3370000000 20.1900000000 -0.3200000000
H 13.2520000000 21.2560000000 0.7990000000
H 13.6740600000 21.9209500000 -1.6263540000
