12
0 1
N 9.2540000000 23.8540000000 3.0120000000
C 11.7820000000 23.7810000000 2.9480000000
C 10.4470000000 23.1720000000 2.4780000000
N 11.8620000000 24.2450000000 4.3590000000
H 10.4330000000 22.1130000000 2.7520000000
H 10.4040000000 23.2470000000 1.3960000000
H 12.5340000000 23.0110000000 2.8410000000
H 12.0090000000 24.6060000000 2.2860000000
H 8.3569160000 23.2936000000 2.7100190000
H 9.4007160000 23.9458800000 4.0982930000
H 10.9578100000 24.7062500000 4.7829070000
H 12.8032100000 24.7903100000 4.5225920000
