14
0 1
C 20.3750000000 27.1310000000 10.1870000000
H 20.7780000000 26.3930000000 10.8830000000
H 19.3070000000 27.2370000000 10.3830000000
C 20.5400000000 26.5770000000 8.7730000000
H 20.3780000000 27.3360000000 8.0090000000
C 21.9530000000 26.0300000000 8.6160000000
H 22.0580000000 25.6260000000 7.6090000000
H 22.6610000000 26.8550000000 8.7710000000
H 22.1210000000 25.2480000000 9.3630000000
C 19.4900000000 25.4800000000 8.6210000000
H 19.5660000000 25.0520000000 7.6210000000
H 19.6560000000 24.7070000000 9.3810000000
H 18.4880000000 25.9220000000 8.7630000000
H 20.8521700000 28.1068300000 10.3603900000
