8
0 1
C 5.6790000000 20.8800000000 0.7490000000
H 6.2210000000 21.8380000000 0.6880000000
H 4.6310000000 21.0960000000 0.9050000000
C 6.2540000000 19.9740000000 1.8540000000
H 6.6210000000 20.5390000000 2.6950000000
H 5.5140000000 19.2510000000 2.2030000000
H 7.0804330000 19.4425700000 1.3594420000
H 5.8302580000 20.3108100000 -0.1800558000
