11
0 1
C 18.9560000000 23.0060000000 13.4240000000
H 19.5820000000 22.1100000000 13.4950000000
C 17.9970000000 22.7690000000 12.2560000000
H 18.5690000000 22.6180000000 11.3290000000
H 17.4120000000 21.8710000000 12.4810000000
H 17.3410000000 23.6360000000 12.1530000000
C 19.8610000000 24.1650000000 13.0740000000
H 20.3450000000 23.9670000000 12.1170000000
H 19.2460000000 25.0660000000 13.0170000000
H 20.5980000000 24.2500000000 13.8730000000
H 18.4486700000 23.1935900000 14.3818200000
