11
0 1
C 13.7910000000 17.0250000000 -2.2430000000
H 12.9060000000 17.6700000000 -2.2860000000
C 13.2960000000 15.5790000000 -2.1780000000
H 12.6850000000 15.4520000000 -1.2810000000
H 12.6900000000 15.3730000000 -3.0750000000
H 14.1590000000 14.9100000000 -2.1520000000
C 14.5270000000 17.4510000000 -0.9900000000
H 13.8720000000 17.3230000000 -0.1270000000
H 15.4310000000 16.8540000000 -0.8840000000
H 14.7890000000 18.5160000000 -1.1070000000
H 14.4122500000 17.1275900000 -3.1449540000
