8
0 1
H 0.6733460000 0.0000000000 -0.2441150000
H -0.6733460000 0.0000000000 -0.2441150000
H 0.0000000000 0.8099620000 1.8213790000
H 0.0000000000 -0.8391270000 -1.7306430000
N 0.0000000000 0.0000000000 -1.1650330000
N 0.0000000000 0.0000000000 1.2088560000
H 0.0000000000 -0.8099620000 1.8213790000
H 0.0000000000 0.8391270000 -1.7306430000
