12
0 1
H 0.9656380000 1.6725350000 0.0000000000
H -0.9656380000 1.6725350000 0.0000000000
H -1.9312770000 0.0000000000 0.0000000000
H -0.9656380000 -1.6725350000 0.0000000000
H 1.9312770000 0.0000000000 0.0000000000
H 0.9656380000 -1.6725350000 0.0000000000
F -1.9232030000 1.1103620000 0.2609190000
F 0.0000000000 2.2207240000 -0.2609190000
F -1.9232030000 -1.1103620000 -0.2609190000
F 1.9232030000 1.1103620000 0.2609190000
F 0.0000000000 -2.2207240000 0.2609190000
F 1.9232030000 -1.1103620000 -0.2609190000
