10
0 1
N 0.0000000011 1.4121823817 1.1950277347
C -1.1320407976 0.6966180025 1.1950277357
C -1.1320407992 -0.6966179978 1.1950277368
N -0.0000000021 -1.4121823801 1.1950277368
C 1.1320407976 -0.6966180020 1.1950277363
C 1.1320408013 0.6966179978 1.1950277352
H -2.0625761570 1.2507173281 1.1950277352
H -2.0625761602 -1.2507173213 1.1950277373
H 2.0625761565 -1.2507173292 1.1950277368
H 2.0625761623 1.2507173213 1.1950277347
