14
0 1
C 0.0000000000 -1.1426206142 0.8158474042
C 0.0000000000 -1.1944694305 2.2078244813
C 0.0000000000 0.0000000000 2.9211517533
C 0.0000000000 1.1944694305 2.2078244808
C 0.0000000000 1.1426206137 0.8158474042
N 0.0000000000 0.0000000000 0.1147022663
H 0.0000000000 -2.0561589023 0.2330662130
H 0.0000000000 -2.1500334384 2.7143380730
H 0.0000000000 0.0000000000 4.0030267303
H 0.0000000000 2.1500334384 2.7143380730
H 0.0000000000 2.0561589017 0.2330662124
C 0.0000000000 0.0000000000 -2.7108422235
O 0.0000000000 -1.1703020698 -2.7108422235
O 0.0000000000 1.1703020698 -2.7108422235
