14
0 1
C -0.6916327114 0.0000000000 -1.1426206137
C 0.7003443652 0.0000000000 -1.1944694305
C 1.4136716377 0.0000000000 0.0000000000
C 0.7003443652 0.0000000000 1.1944694305
C -0.6916327114 0.0000000000 1.1426206137
N -1.3927778487 0.0000000000 0.0000000000
H -1.2744139026 0.0000000000 -2.0561589023
H 1.2068579574 0.0000000000 -2.1500334379
H 2.4955466147 0.0000000000 0.0000000000
H 1.2068579574 0.0000000000 2.1500334379
H -1.2744139026 0.0000000000 2.0561589023
C -1.6067606298 3.1440364517 0.0000000000
O -0.4364585599 3.1440364517 0.0000000000
O -2.7770626996 3.1440364517 0.0000000000
