19
0 1
C 0.0000000000 -0.7063830329 -2.2871901961
N 0.0000000000 -1.4407042490 -1.1796703157
C 0.0000000000 -0.7398958599 -0.0202439853
C 0.0000000000 -1.4593690832 1.2290673597
C 0.0000000000 -0.6854993215 2.3444428954
C 0.0000000000 0.6854993215 2.3444428954
C 0.0000000000 1.4593690832 1.2290673597
C 0.0000000000 0.7398958599 -0.0202439853
N 0.0000000000 1.4407042490 -1.1796703157
C 0.0000000000 0.7063830329 -2.2871901961
H 0.0000000000 -1.2415174083 -3.2301855975
H 0.0000000000 -2.5395212027 1.2259226168
H 0.0000000000 -1.1793566914 3.3103412045
H 0.0000000000 1.1793566914 3.3103412045
H 0.0000000000 2.5395212027 1.2259226168
H 0.0000000000 1.2415174083 -3.2301855975
C 3.1379294388 0.0000000000 0.0188783736
O 3.1379294388 0.0000000000 1.1891804435
O 3.1379294388 0.0000000000 -1.1514236962
