25
0 1
C 0.0000000000 0.7237604477 -0.3574245346
C 0.0000000000 1.4098776218 0.8883491365
C 0.0000000000 2.8174380538 0.8653105309
C 0.0000000000 3.4696275831 -0.3486106378
C 0.0000000000 2.6977138143 -1.5236981418
N 0.0000000000 1.3707722177 -1.5460796617
C 0.0000000000 0.6815043543 2.1156092386
C 0.0000000000 -0.6815043543 2.1156092386
C 0.0000000000 -1.4098776218 0.8883491365
C 0.0000000000 -2.8174380538 0.8653105309
C 0.0000000000 -3.4696275831 -0.3486106378
C 0.0000000000 -2.6977138143 -1.5236981418
N 0.0000000000 -1.3707722177 -1.5460796617
C 0.0000000000 -0.7237604477 -0.3574245346
H 0.0000000000 3.3673848730 1.7994548011
H 0.0000000000 4.5497903522 -0.4083807517
H 0.0000000000 3.1868235359 -2.4919860681
H 0.0000000000 1.2338918133 3.0484604886
H 0.0000000000 -1.2338918133 3.0484604886
H 0.0000000000 -3.3673848730 1.7994548011
H 0.0000000000 -4.5497903522 -0.4083807517
H 0.0000000000 -3.1868235359 -2.4919860681
C 2.8210145425 0.0000000000 -2.3319337468
O 2.8210145425 0.0000000000 -1.1616316769
O 2.8210145425 0.0000000000 -3.5022358166
