25
0 1
C 0.0000000000 -0.7300211687 0.2273698489
C 0.0000000000 1.7367959258 1.5910521758
C 0.0000000000 -0.7142573263 1.6245278715
C 0.0000000000 0.4615185754 -0.5023781067
C 0.0000000000 0.5433156662 2.3192278781
C 0.0000000000 1.7186685631 0.1930870891
H 0.0000000000 -1.6773835913 -0.2963420210
H 0.0000000000 2.6869479786 2.1163061824
N 0.0000000000 -1.9214186895 2.2773519927
N 0.0000000000 0.3723047432 -1.8718520135
C 0.0000000000 0.5134129025 3.7378964674
C 0.0000000000 2.9041357056 -0.5867734078
H 0.0000000000 1.4430083040 4.2950996751
H 0.0000000000 3.8704099739 -0.0959200050
C 0.0000000000 -1.8913213987 3.5942767426
C 0.0000000000 1.5035239698 -2.5467888293
C 0.0000000000 -0.7010359739 4.3714800752
C 0.0000000000 2.7947524650 -1.9521852752
H 0.0000000000 -2.8543258255 4.0940882900
H 0.0000000000 1.4145926225 -3.6281214902
H 0.0000000000 -0.7698965812 5.4513462902
H 0.0000000000 3.6725912917 -2.5848398584
C 0.0000000000 -1.9066930430 -3.6375506031
O 0.0000000000 -1.1328098683 -4.5154525151
O 0.0000000000 -2.6805762178 -2.7596486910
