22
0 1
C 0.0000000000 0.0000000000 -1.3662007045
C 0.0000000000 0.0000000000 1.4524542977
C 0.0000000000 1.2151314769 -0.6764510856
C 0.0000000000 -1.2151314769 -0.6764510856
C 0.0000000000 1.2146943104 0.7602457224
C 0.0000000000 -1.2146943104 0.7602457224
H 0.0000000000 0.0000000000 -2.4486838140
H 0.0000000000 0.0000000000 2.5381249146
N 0.0000000000 2.3704989504 -1.4170885746
N 0.0000000000 -2.3704989504 -1.4170885746
C 0.0000000000 2.4707450796 1.4204359994
C 0.0000000000 -2.4707450796 1.4204359994
H 0.0000000000 2.5086516618 2.5035731614
H 0.0000000000 -2.5086516618 2.5035731614
C 0.0000000000 3.5084776470 -0.7536120162
C 0.0000000000 -3.5084776470 -0.7536120162
C 0.0000000000 3.6127994737 0.6641119833
C 0.0000000000 -3.6127994737 0.6641119833
H 0.0000000000 4.4118076992 -1.3545978041
H 0.0000000000 -4.4118076992 -1.3545978041
H 0.0000000000 4.5911868354 1.1262926853
H 0.0000000000 -4.5911868354 1.1262926853
