28
0 1
N 0.0000000000 0.0000000000 -2.3717035937
C 0.0000000000 -1.1474097198 -1.6817306863
C 0.0000000000 1.1474097198 -1.6817306863
H 0.0000000000 -2.0611393023 -2.2685709393
H 0.0000000000 2.0611393023 -2.2685709393
C 0.0000000000 -1.2222438641 -0.2816644185
C 0.0000000000 1.2222438641 -0.2816644185
C 0.0000000000 0.0000000000 0.4388404760
C 0.0000000000 -2.4542161051 0.4402826151
C 0.0000000000 2.4542161051 0.4402826151
H 0.0000000000 -3.3872793965 -0.1114385214
H 0.0000000000 3.3872793965 -0.1114385214
C 0.0000000000 0.0000000000 1.8511137862
C 0.0000000000 -1.2367493856 2.5562051292
C 0.0000000000 1.2367493856 2.5562051292
C 0.0000000000 -2.4559222926 1.8076234515
C 0.0000000000 2.4559222926 1.8076234515
H 0.0000000000 -3.3947598074 2.3504273694
H 0.0000000000 3.3947598074 2.3504273694
C 0.0000000000 -1.2114819967 3.9574297226
C 0.0000000000 1.2114819967 3.9574297226
H 0.0000000000 -2.1479066805 4.5037712833
H 0.0000000000 2.1479066805 4.5037712833
C 0.0000000000 0.0000000000 4.6460569058
H 0.0000000000 0.0000000000 5.7287404561
C 0.0000000000 0.0000000000 -5.1849225240
O 0.0000000000 -1.1703020698 -5.1849225240
O 0.0000000000 1.1703020698 -5.1849225240
