25
0 1
N 0.0000000000 0.0000000000 -3.4944346285
C 0.0000000000 -1.1474097214 -2.8044617201
C 0.0000000000 1.1474097214 -2.8044617201
H 0.0000000000 -2.0611393070 -3.3913019746
H 0.0000000000 2.0611393070 -3.3913019746
C 0.0000000000 -1.2222438657 -1.4043954560
C 0.0000000000 1.2222438657 -1.4043954560
C 0.0000000000 0.0000000000 -0.6838905614
C 0.0000000000 -2.4542161019 -0.6824484234
C 0.0000000000 2.4542161019 -0.6824484234
H 0.0000000000 -3.3872793901 -1.2341695573
H 0.0000000000 3.3872793901 -1.2341695573
C 0.0000000000 0.0000000000 0.7283827503
C 0.0000000000 -1.2367493893 1.4334740955
C 0.0000000000 1.2367493893 1.4334740955
C 0.0000000000 -2.4559222979 0.6848924172
C 0.0000000000 2.4559222979 0.6848924172
H 0.0000000000 -3.3947598101 1.2276963336
H 0.0000000000 3.3947598101 1.2276963336
C 0.0000000000 -1.2114820004 2.8346986931
C 0.0000000000 1.2114820004 2.8346986931
H 0.0000000000 -2.1479066816 3.3810402522
H 0.0000000000 2.1479066816 3.3810402522
C 0.0000000000 0.0000000000 3.5233258721
H 0.0000000000 0.0000000000 4.6060094245
