60
0 1
O -4.0290170000 3.7941820000 -3.5885650000
H -3.4797400000 3.3207970000 -2.9637170000
H -3.4205380000 4.0940990000 -4.2638690000
O -3.2026560000 7.3111380000 -4.3456760000
H -3.9763960000 7.0113720000 -3.8684970000
H -2.6685430000 7.7513430000 -3.6844830000
O -1.8279620000 8.1855330000 -2.1153000000
H -2.5007490000 7.7722520000 -1.5742000000
H -1.7001930000 9.0486700000 -1.7217240000
O 1.3498140000 7.1467780000 0.4743170000
H 0.9987850000 8.0249930000 0.6217930000
H 2.1096730000 7.0916150000 1.0538030000
O 3.1418250000 7.1092890000 2.5801840000
H 4.0044770000 6.7376400000 2.7644180000
H 2.5492810000 6.6451530000 3.1715400000
O 1.9855930000 9.5255610000 3.3332300000
H 2.5392920000 8.7916370000 3.0667600000
H 1.4668590000 9.7297210000 2.5551130000
O -1.6908070000 10.4658730000 -0.5611500000
H -2.0003430000 11.3547600000 -0.7352230000
H -2.3645380000 10.0828470000 0.0006420000
O -3.4187670000 9.1389760000 1.0185830000
H -3.6761040000 8.3496460000 0.5421720000
H -2.9328670000 8.8140830000 1.7765930000
O -3.6817210000 6.9033900000 -0.6021510000
H -3.1663130000 6.1245140000 -0.3925310000
H -4.2964030000 6.6105040000 -1.2749190000
O -5.1539700000 6.0994590000 -2.7789370000
H -4.8201400000 5.2381940000 -3.0299620000
H -6.0989790000 6.0408560000 -2.9194930000
O -0.0136370000 6.1787880000 -1.7260720000
H -0.5363510000 6.9482860000 -1.9516280000
H 0.6182160000 6.4982850000 -1.0819310000
O -0.3586550000 4.0017760000 -3.4089300000
H -0.0728490000 4.7682620000 -2.9118920000
H -0.8781660000 4.3618970000 -4.1277160000
O -2.1638900000 4.9965270000 -5.2513770000
H -2.4754390000 5.8617680000 -4.9858070000
H -2.0864200000 5.0512770000 -6.2038650000
O -2.1460680000 2.6999690000 -1.8833230000
H -1.9076820000 1.7770680000 -1.7958080000
H -1.4556190000 3.0754040000 -2.4297310000
O -1.8781550000 4.8838150000 -0.2233490000
H -2.0516920000 4.0475680000 -0.6555640000
H -1.2004580000 5.2951390000 -0.7597920000
O -1.5561510000 8.1601020000 2.8362510000
H -1.1320340000 8.2838230000 3.6853980000
H -1.3140540000 7.2718650000 2.5742240000
O 0.1801940000 9.4903600000 1.2174730000
H -0.3378180000 9.9517960000 0.5579480000
H -0.4691420000 9.0882390000 1.7944440000
O 0.1719410000 8.4108780000 4.9825500000
H 0.8362330000 8.8805820000 4.4782420000
H 0.1709750000 8.8411920000 5.8375720000
O 1.2512680000 5.9906900000 4.1369120000
H 0.5924080000 5.7061900000 3.5035110000
H 0.8474390000 6.7332300000 4.5861220000
O -0.4874260000 5.8024780000 1.9730750000
H 0.1852630000 6.2068780000 1.4251870000
H -1.0386820000 5.3184130000 1.3582340000
