60
0 1
O -1.9554890000 -5.7411830000 7.4828350000
H -2.2072360000 -5.8454660000 6.5652400000
H -2.4724760000 -6.3977320000 7.9496340000
O 4.2339260000 -4.1557420000 3.3306170000
H 4.5347340000 -4.1955270000 4.2384520000
H 3.7139810000 -4.9510560000 3.2150080000
O 4.8655350000 -4.0900710000 6.0250550000
H 4.6277640000 -3.1629990000 6.0404320000
H 5.7405450000 -4.1198560000 6.4119700000
O 3.2804770000 -6.3644530000 6.0740340000
H 3.8187580000 -5.5813320000 6.1889630000
H 2.4575170000 -6.1570900000 6.5167190000
O 0.7493830000 -5.5321790000 6.8615940000
H -0.1131530000 -5.7226160000 7.2303740000
H 0.8129430000 -4.5772780000 6.8804540000
O 4.2937760000 -1.4601850000 5.7539320000
H 4.2308930000 -1.3561680000 4.8044800000
H 3.5164560000 -1.0184130000 6.0957580000
O 3.8577950000 -1.4972030000 3.0096290000
H 3.9458410000 -2.4501800000 3.0274000000
H 4.4586710000 -1.2134850000 2.3206550000
O -2.6008640000 -0.2429410000 7.0911110000
H -2.9826210000 -0.2631850000 6.2135670000
H -2.5136360000 -1.1641160000 7.3361860000
O 2.7807830000 -6.5194440000 3.4376860000
H 2.9954790000 -6.5526590000 4.3699070000
H 3.1021330000 -7.3503740000 3.0876530000
O 1.7714960000 -0.4040460000 6.2358080000
H 1.1262580000 0.2291160000 6.5504610000
H 1.6217170000 -0.4502240000 5.2915270000
O -0.3715320000 1.2493840000 6.7837370000
H -1.1474120000 0.7258470000 6.9841170000
H -0.4690270000 2.0373030000 7.3184440000
O 0.2390320000 -5.7788640000 4.1869930000
H 0.4367570000 -5.7739010000 5.1235360000
H 1.0421280000 -6.0960030000 3.7738420000
O -2.7113620000 -3.0328210000 4.6591650000
H -3.0304830000 -2.1566050000 4.4432000000
H -2.5686930000 -3.0098080000 5.6053930000
O 0.5647820000 -2.8273090000 6.5106460000
H 1.0480400000 -2.0044860000 6.5858440000
H 0.3772150000 -2.9108860000 5.5757310000
O 1.2698100000 -0.7435650000 3.5758290000
H 2.1473970000 -0.9449280000 3.2509820000
H 0.8038480000 -1.5790120000 3.5420360000
O -2.4759160000 -5.8202160000 4.8421300000
H -1.6210180000 -5.9449850000 4.4300450000
H -2.7320270000 -4.9305670000 4.5988950000
O -3.2824800000 -0.3490420000 4.3949800000
H -2.4599560000 0.0966540000 4.1923890000
H -3.9491850000 0.1527830000 3.9260360000
O -0.1025500000 -3.0906400000 3.9000620000
H 0.0737060000 -4.0285240000 3.8256380000
H -1.0494280000 -3.0338270000 4.0282340000
O -2.0325570000 -2.9657810000 7.2964110000
H -2.1226610000 -3.8841550000 7.5507800000
H -1.0942720000 -2.8489860000 7.1473730000
O -0.9152130000 0.9067800000 4.0795550000
H -0.6751580000 1.1630890000 4.9700120000
H -0.1478570000 0.4396050000 3.7491840000
