60
0 1
O -7.8300120000 -0.6548770000 2.2775500000
H -7.6385120000 0.2786450000 2.3675300000
H -8.7451130000 -0.7390460000 2.5453920000
O -2.3847420000 0.9804220000 -1.9903770000
H -2.7067240000 0.0795230000 -1.9597100000
H -3.1443290000 1.4977760000 -2.2579690000
O -3.2579590000 -1.5872510000 -1.7121500000
H -2.3737050000 -1.9535670000 -1.7002760000
H -3.5442890000 -1.6217440000 -0.7994300000
O -5.6215870000 -0.5589720000 -2.7930070000
H -4.8196900000 -1.0630000000 -2.6546210000
H -6.1530000000 -0.7355350000 -2.0166960000
O -6.4932280000 -0.7914710000 -0.1357710000
H -7.1137530000 -0.8351480000 0.5917420000
H -5.7084050000 -1.2309990000 0.1914930000
O -0.6709960000 -2.2363820000 -1.1692380000
H -0.2614620000 -1.3712690000 -1.1595610000
H -0.8015920000 -2.4504250000 -0.2454610000
O 0.0683580000 0.4523210000 -0.9835260000
H -0.7550150000 0.7418370000 -1.3765520000
H 0.7462240000 0.9028340000 -1.4872800000
O -3.4918790000 -2.0321640000 5.3008860000
H -3.3282730000 -1.1364810000 5.5962120000
H -4.2508820000 -1.9592040000 4.7222470000
O -4.8706670000 2.0297580000 -2.6697170000
H -5.1757810000 1.1348830000 -2.8191700000
H -5.1443910000 2.5102710000 -3.4510080000
O -1.4560580000 -2.2483600000 1.5152710000
H -1.3087460000 -2.5953250000 2.3951270000
H -1.1671980000 -1.3371490000 1.5651540000
O -1.1513740000 -2.7906650000 4.1980430000
H -1.9998490000 -2.6126630000 4.6037970000
H -0.7892230000 -3.5157520000 4.7072840000
O -5.6549870000 1.8153610000 -0.0305860000
H -6.0170340000 0.9349630000 -0.1308490000
H -5.4222970000 2.0818840000 -0.9199980000
O -4.7197170000 1.1429430000 3.8652680000
H -4.0849440000 1.1292610000 4.5815840000
H -4.9999800000 0.2321000000 3.7755390000
O -3.9981910000 -1.4749070000 0.9599410000
H -3.1815540000 -1.9233900000 1.1794850000
H -3.8063200000 -0.5469790000 1.0954710000
O -0.8215840000 0.3919620000 1.6174770000
H -0.3957840000 0.5170370000 0.7693720000
H -1.6797540000 0.8041950000 1.5182770000
O -6.9954610000 1.8989760000 2.4307690000
H -6.6035270000 2.1199040000 1.5858960000
H -6.2565900000 1.8735080000 3.0387620000
O -2.7870980000 0.6215290000 5.7564080000
H -1.9751630000 0.4624360000 5.2750730000
H -2.5064020000 1.0474440000 6.5663700000
O -3.4682010000 1.1197210000 1.4604050000
H -4.1050550000 1.5248390000 0.8717370000
H -3.8343530000 1.2484950000 2.3353800000
O -5.3966880000 -1.4444180000 3.3484060000
H -6.3082100000 -1.3311470000 3.0790920000
H -4.9235380000 -1.6057150000 2.5321070000
O -0.5942720000 -0.0664700000 4.3502880000
H -0.6225280000 -1.0227740000 4.3199770000
H -0.5285430000 0.2008580000 3.4335290000
