60
0 1
O 2.7967220000 5.9957310000 4.0417320000
H 3.2818910000 5.2918440000 4.4722980000
H 2.1341140000 5.5451050000 3.5181670000
O -3.3787550000 2.1322670000 5.6799720000
H -2.7880670000 1.8811070000 6.3900700000
H -3.4176880000 1.3600360000 5.1157240000
O -0.8252660000 5.4124840000 5.2999320000
H -0.2563130000 6.1267830000 5.5868160000
H -0.6129010000 4.6862630000 5.8862230000
O 3.7726280000 3.8837530000 5.5727110000
H 3.3024130000 4.2458960000 6.3236990000
H 4.6691560000 3.7639400000 5.8859440000
O 1.2835710000 7.0780970000 5.9922050000
H 1.8523220000 6.7993820000 5.2745200000
H 1.4262240000 8.0222720000 6.0586600000
O -1.4842090000 1.2206950000 7.4764360000
H -1.3314350000 0.4821350000 6.8870100000
H -1.7156990000 0.8164800000 8.3126510000
O 0.1566460000 3.2867340000 6.7204100000
H -0.4010190000 2.5911460000 7.0688340000
H 0.6502000000 2.8680430000 6.0151910000
O 0.6183770000 4.4984740000 3.1898290000
H 0.0865180000 4.8829210000 3.8866500000
H -0.0186960000 4.1531750000 2.5644180000
O -3.4577610000 3.3079190000 -0.0167530000
H -3.5234880000 2.3530270000 -0.0071400000
H -3.6025720000 3.5492440000 -0.9316430000
O -3.3144530000 0.0008860000 3.9710520000
H -4.1537200000 0.1207370000 3.5266430000
H -2.6585400000 0.2004230000 3.3030730000
O -1.1984560000 -0.7269270000 5.6409540000
H -2.0020640000 -0.6877090000 5.1223900000
H -0.4977040000 -0.5600100000 5.0106220000
O 0.6930240000 -0.0009970000 3.7380730000
H 1.0784510000 0.8209500000 4.0415240000
H 1.4443250000 -0.5491390000 3.5115340000
O 1.6445510000 2.4147190000 4.5939740000
H 2.4802160000 2.7679110000 4.8991840000
H 1.2972960000 3.0897760000 4.0109270000
O -5.4552970000 0.7522250000 2.3999160000
H -5.3753020000 1.7058870000 2.4189690000
H -6.3977460000 0.5896080000 2.4396440000
O -3.0222170000 4.2291840000 4.0294010000
H -3.1917120000 3.5297160000 4.6604700000
H -2.4315970000 4.8274330000 4.4871120000
O -3.6029980000 0.6442990000 0.3239890000
H -4.3075770000 0.5387120000 0.9632480000
H -2.8044200000 0.4419680000 0.8113990000
O 2.2267710000 4.9396360000 7.4998250000
H 1.9069970000 5.7694910000 7.1458230000
H 1.4736780000 4.3509850000 7.4490940000
O -5.0473210000 3.4221330000 2.2669280000
H -4.5798360000 3.5412480000 1.4401860000
H -4.4886810000 3.8418450000 2.9211420000
O -1.5249660000 3.3407700000 1.9438460000
H -2.0829640000 3.4471640000 1.1734230000
H -2.0656820000 3.6397320000 2.6749280000
O -1.4467700000 0.6301950000 2.1089370000
H -0.6439940000 0.3753790000 2.5637470000
H -1.4006940000 1.5848970000 2.0574180000
