7
-1 1
F 1.8506173745 -0.0131789997 -0.0001280000
C 0.0908570812 0.0105859784 0.0002690004
H 0.0409070388 1.0795479689 -0.0117490041
H 0.0371630042 -0.5280130209 -0.9229432651
H 0.0374860140 -0.5074629531 0.9351302163
O -1.8928033818 0.1032662868 -0.0001180002
H -2.1738229396 -0.8151128249 0.0000390000
