11
0 1
C 0.0000000000 0.0000000000 -1.1241699110
C 0.0000000000 1.1794267485 -0.1895951011
C 0.0000000000 -1.1794267485 -0.1895951011
C 0.0000000000 0.7343464676 1.0806622991
C 0.0000000000 -0.7343464676 1.0806622991
H 0.8771587317 0.0000000000 -1.7856841483
H -0.8771587317 0.0000000000 -1.7856841483
H 0.0000000000 2.2102795964 -0.5163549695
H 0.0000000000 -2.2102795964 -0.5163549695
H 0.0000000000 1.3472861290 1.9730568752
H 0.0000000000 -1.3472861290 1.9730568752
