17
0 1
H -0.5388669183 -2.2436182864 1.3257933778
C -0.6587729524 -1.3681870370 0.7000881995
H -0.7960819916 1.8416548778 0.0000000000
C -0.6587729524 -0.0446706598 1.1554973293
C -0.6587729524 -1.3681870370 -0.7000881995
H -2.2323064008 0.8001255810 0.0000000000
C -1.1308500870 0.8052035824 0.0000000000
C 1.4409916459 0.5201945012 0.6948951980
H -0.7876959892 0.2426514221 2.1917076246
C 1.4409916459 0.5201945012 -0.6948951980
H -0.5388669183 -2.2436182864 -1.3257933778
C -0.6587729524 -0.0446706598 -1.1554973293
H -0.7876959892 0.2426514221 -2.1917076246
H 1.3710056260 1.4564007680 -1.2364783524
H 1.9117307801 -0.2862627286 1.2411513537
H 1.3710056260 1.4564007680 1.2364783524
H 1.9117307801 -0.2862627286 -1.2411513537
