17
0 1
C -0.6044028925 0.0962844702 1.3044760701
Si -0.7491134337 1.4312273508 0.0000000000
C 1.5414454176 -0.0906405841 0.6977415483
C -1.1578121465 -1.0420479609 0.7042307429
C -0.6044028925 0.0962844702 -1.3044760701
C 1.5414454176 -0.0906405841 -0.6977415483
C -1.1578121465 -1.0420479609 -0.7042307429
H -0.5756815598 0.1951047158 2.3833930932
H -2.1016228199 2.0601625309 0.0000000000
H 0.2709328575 2.5094716577 0.0000000000
H 1.8760865544 0.7896088381 1.2333985632
H 1.6474796339 -1.0208707530 1.2379469973
H -1.4372133090 -1.9278694958 1.2674241925
H -0.5756815598 0.1951047158 -2.3833930932
H 1.8760865544 0.7896088381 -1.2333985632
H 1.6474796339 -1.0208707530 -1.2379469973
H -1.4372133090 -1.9278694958 -1.2674241925
