9
0 1
C -0.7173112044 0.0000000000 0.7353642269
C -1.0939868885 0.0000000000 -0.5690316895
O 0.0000000000 0.0000000000 -1.3812142433
C 1.0939868885 0.0000000000 -0.5690316895
C 0.7173112044 0.0000000000 0.7353642269
H -1.3719923553 0.0000000000 1.5921392625
H -2.0480857633 0.0000000000 -1.0678646783
H 2.0480857633 0.0000000000 -1.0678646783
H 1.3719923553 0.0000000000 1.5921392625
