10
0 1
P -0.2958368843 -1.5865156521 0.0000000000
C -0.0828608236 -0.3228242920 1.2860183665
C -0.0828608236 -0.3228242920 -1.2860183665
C -0.0828608236 0.9093930592 0.7289482077
C -0.0828608236 0.9093930592 -0.7289482077
H 0.9916434826 -2.1922978247 0.0000000000
H -0.0986728281 -0.5273403503 2.3478116691
H -0.0986728281 -0.5273403503 -2.3478116691
H -0.0835088238 1.8301783215 1.3024053711
H -0.0835088238 1.8301783215 -1.3024053711
