16
0 1
H -1.2094580947 1.8617255305 1.2900383676
C -0.4544078795 1.3550413861 0.6980941989
C 0.4826923876 0.4726091347 1.2470133554
C -0.4544078795 1.3550413861 -0.6980941989
H 2.3629959234 1.3945973974 0.0000000000
P 1.7872017593 0.0801150228 0.0000000000
C -0.4544078795 -1.4738684200 0.6978231989
H 0.6600174381 0.3934561121 2.3129146591
C -0.4544078795 -1.4738684200 -0.6978231989
H -1.2094580947 1.8617255305 -1.2900383676
C 0.4826923876 0.4726091347 -1.2470133554
H 0.6600174381 0.3934561121 -2.3129146591
H 0.2680193264 -2.0793985926 -1.2314583509
H -1.3675541397 -1.2669213610 1.2388593530
H 0.2680193264 -2.0793985926 1.2314583509
H -1.3675541397 -1.2669213610 -1.2388593530
