16
0 1
H -1.9589318082 1.2311745383 1.2923983683
C -1.0607045523 1.1152865053 0.6965521985
C 0.1877728035 0.7555634028 1.2430253542
C -1.0607045523 1.1152865053 -0.6965521985
H 2.3497574196 0.2042912457 0.0000000000
P 1.4205811548 1.2794545521 0.0000000000
C 0.1877728035 -1.3974982107 0.6964701985
H 0.3767958574 0.7949304140 2.3095606582
C 0.1877728035 -1.3974982107 -0.6964701985
H -1.9589318082 1.2311745383 -1.2923983683
C 0.1877728035 0.7555634028 -1.2430253542
H 0.3767958574 0.7949304140 -2.3095606582
H 1.1024610642 -1.6070482705 -1.2371003525
H -0.7203354553 -1.6342812782 1.2351483520
H 1.1024610642 -1.6070482705 1.2371003525
H -0.7203354553 -1.6342812782 -1.2351483520
