10
0 1
C -0.1090850311 -0.0000690000 1.8486795268
C 0.4005621141 -0.0000320000 0.6087861735
C -0.4005621141 -0.0000250000 -0.6087861735
H 1.4826774225 0.0000100000 0.4740761351
H -1.4826774225 -0.0000590000 -0.4740761351
C 0.1090840311 0.0000210000 -1.8486795268
H 1.1830133371 0.0002820001 -2.0225935764
H 0.5264351500 0.0000530000 2.7290857777
H -1.1830133371 0.0004950001 2.0225945764
H -0.5264351500 -0.0001490000 -2.7290857777
