7
0 1
C 0.9811497981 0.3246320693 0.0000000000
H 1.0547985498 1.4002253095 0.0000000000
H 1.8357153360 -0.3305905119 0.0000000000
N -0.2182044093 -0.2186818244 0.0000000000
H -0.2010877856 -1.2422572179 0.0000000000
N -1.3704068242 0.3979153134 0.0000000000
H -2.0819646648 -0.3312431379 0.0000000000
