8
0 1
N 0.0000000000 0.0000000000 -0.3687551361
H 0.0000000000 0.0000000000 -1.3837870634
C 1.2257744119 0.0000000000 0.1578400612
H 1.3393151941 0.0000000000 1.2298672646
H 2.0680941121 0.0000000000 -0.5114362261
C -1.2257744119 0.0000000000 0.1578400612
H -1.3393151941 0.0000000000 1.2298672646
H -2.0680941121 0.0000000000 -0.5114362261
