10
0 1
C 0.8585082512 0.8514991559 -0.0540655799
C 0.8566578809 -0.5323483934 -0.0214838834
N -1.2189555522 -0.9302254991 -0.1234972511
N -1.6670456335 0.2559341213 -0.0121211087
N -1.2107385700 1.3309141018 -0.0506302736
H 1.0397290284 1.4201473170 0.8483924083
H 1.0407250462 1.3713264414 -0.9862681566
H 1.0250906585 -1.0569786782 0.9112907598
H 1.0420723510 -1.1039417247 -0.9205017885
H -1.7660434605 -1.6063268420 0.4088848738
