11
0 1
C -1.0366621418 1.0022674033 0.0000000000
C -0.9980283536 -0.3732398306 0.0000000000
C 1.1512589121 -0.8978543353 0.0000000000
N 1.5958119771 0.3797034224 0.0000000000
N 1.2389871796 1.4751316348 0.0000000000
H -1.1699330821 1.5600706429 -0.9182521156
H -1.1699330821 1.5600706429 0.9182521156
H -1.1995722165 -0.9203355395 -0.9140284603
H -1.1995722165 -0.9203355395 0.9140284603
H 1.3938215119 -1.4327392507 0.9149192313
H 1.3938215119 -1.4327392507 -0.9149192313
