11
0 1
C -1.1480134037 -0.5797556349 0.0312069588
C -1.0802197677 0.7819252309 0.0263900439
N 1.3054373380 1.1312158251 0.1174373119
N 1.5753414396 -0.0959101528 0.0044506853
C 1.0633782518 -1.1948121828 0.0047858911
H -1.3134749597 -1.1180036225 0.9584006409
H -1.3481388886 -1.1299799358 -0.8796350004
H -1.1137603201 1.3541901495 0.9425754329
H -1.1628116364 1.3438179237 -0.8958735698
H 1.7709311137 1.6603790714 -0.6248375169
H 1.4513308330 -2.1530666717 0.3150991223
