14
0 1
C -0.3188840909 0.0000660000 2.8945218249
H 0.6413351828 0.0001790001 3.4059639706
H -1.2050453434 0.0000700000 3.5218320036
C -0.4008231142 -0.0000620000 1.5539144428
H -1.3865583951 -0.0001360000 1.0922763113
C 0.7575422159 -0.0000640000 0.6776871931
H 1.7232624911 0.0000440000 1.1824033370
C 0.7575422159 -0.0000370000 -0.6776871931
H 1.7232624911 0.0000840000 -1.1824033370
C -0.4008231142 0.0000020000 -1.5539144428
H -1.3865583951 -0.0000500000 -1.0922763113
C -0.3188840909 0.0000460000 -2.8945218249
H 0.6413351828 0.0000810000 -3.4059639706
H -1.2050453434 0.0000240000 -3.5218320036
