10
0 1
H 0.0000000000 -1.4206414048 1.6014734564
C 0.0000000000 0.6701701910 0.8148192322
C 0.0000000000 -0.6701701910 0.8148192322
C 0.0000000000 0.7863112241 -0.6996971994
C 0.0000000000 -0.7863112241 -0.6996971994
H 0.8901092537 -1.2465993552 -1.1461013266
H -0.8901092537 -1.2465993552 -1.1461013266
H 0.0000000000 1.4206414048 1.6014734564
H -0.8901092537 1.2465993552 -1.1461013266
H 0.8901092537 1.2465993552 -1.1461013266
