16
0 1
H -0.1448830413 1.2440003545 2.7907877953
C -0.0793700226 0.7214292056 1.8402295244
C -0.1286930367 1.4089854015 0.6774821931
C 0.0793700226 -0.7214292056 1.8402295244
C 0.1286930367 -1.4089854015 0.6774821931
H 0.1448830413 -1.2440003545 2.7907877953
H -0.2212180630 2.4923457102 0.6775081931
C -0.0067270019 0.7484672133 -0.6213441771
C 0.0067270019 -0.7484672133 -0.6213441771
H 0.2212180630 -2.4923457102 0.6775081931
C 0.1286930367 1.4974474267 -1.7395094957
C -0.1286930367 -1.4974474267 -1.7395094957
H 0.0895460255 2.5817307357 -1.6890104813
H 0.2944570839 1.0644803033 -2.7204277752
H -0.2944570839 -1.0644803033 -2.7204277752
H -0.0895460255 -2.5817307357 -1.6890104813
