14
0 1
C -0.1060830302 -1.2037163430 1.1406533251
C 0.1887340538 0.1198430342 1.4824894225
C -0.1060830302 1.2423193540 0.7029642003
C -0.1060830302 1.2423193540 -0.7029642003
C 0.1887340538 0.1198430342 -1.4824894225
C -0.1060830302 -1.2037163430 -1.1406533251
H 0.8412802397 0.2962760844 2.3404886670
H -0.0165790047 2.2200006326 1.1751063349
H -0.0165790047 2.2200006326 -1.1751063349
H 0.8412802397 0.2962760844 -2.3404886670
H 0.4470501274 -1.9992045697 -1.6411474677
H -1.1311553223 -1.4677494183 -0.9362552668
H 0.4470501274 -1.9992045697 1.6411474677
H -1.1311553223 -1.4677494183 0.9362552668
