16
0 1
C -0.0031550009 -0.2598640741 1.4311034078
C 0.0025910007 0.2600100741 -1.4311054078
C -1.2204243478 0.2548980726 0.9464702697
C 1.2205153478 -0.2535260722 -0.9468412698
C 1.2167803467 0.2534540722 0.9517962712
C -1.2165843467 -0.2549760727 -0.9516032712
H -2.1481566122 -0.1892650539 1.3069193724
H 2.1475436120 0.1930440550 -1.3060823722
H -1.3003743706 1.3319813796 0.8100632308
H 1.3024033711 -1.3306243792 -0.8118322313
H 1.2995853703 1.3305093792 0.8170302328
H -1.2969183696 -1.3320813796 -0.8156402324
H 2.1422256105 -0.1934240551 1.3147243747
H -2.1429466107 0.1891530539 -1.3155953749
H -0.0045660013 -1.2775613641 1.8229355195
H 0.0028560008 1.2782913643 -1.8214485191
