17
0 1
H -1.5436344399 -1.5741154486 -1.3288183787
C -0.7442382121 -1.1899193391 -0.7029112003
H 2.0024615706 0.4806331370 0.0000000000
C 0.3584471021 -0.4603331312 -1.1574273298
C -0.7442382121 -1.1899193391 0.7029112003
H 1.9421195534 -1.2931393685 0.0000000000
C 1.3263853780 -0.3768461074 0.0000000000
C -0.3321120946 1.6291294643 -0.6939701978
H 0.6718461915 -0.4072321160 -2.1954446256
C -0.3321120946 1.6291294643 0.6939701978
H -1.5436344399 -1.5741154486 1.3288183787
C 0.3584471021 -0.4603331312 1.1574273298
H 0.6718461915 -0.4072321160 2.1954446256
H 0.4924201403 2.0773885920 1.2411733537
H -1.2646623604 1.5674844467 -1.2439403545
H 0.4924201403 2.0773885920 -1.2411733537
H -1.2646623604 1.5674844467 1.2439403545
