21
0 1
H 2.0769445919 -1.1378753243 1.1815893367
C 1.4865024236 -0.3606671028 0.7071842015
C -1.8586805297 0.6857121954 0.0000000000
C 0.9293402648 0.6857121954 1.6096644587
H -0.0151860043 -1.1378753243 2.3894816809
H 0.6581441876 1.6318674650 1.1399393248
H 1.4682464184 0.8576092444 2.5430777247
C -0.1308120373 -0.3606671028 1.6409414676
C -1.3556903863 -0.3606671028 0.9337562661
H -0.0151860043 -1.1378753243 -2.3894816809
C -0.1308120373 -0.3606671028 -1.6409414676
H -2.9364928368 0.8576092444 0.0000000000
C 0.9293402648 0.6857121954 -1.6096644587
H 2.0769445919 -1.1378753243 -1.1815893367
H 0.6581441876 1.6318674650 -1.1399393248
H 1.4682464184 0.8576092444 -2.5430777247
C 1.4865024236 -0.3606671028 -0.7071842015
H -2.0617585875 -1.1378753243 1.2078923442
H -1.3162883751 1.6318674650 0.0000000000
C -1.3556903863 -0.3606671028 -0.9337562661
H -2.0617585875 -1.1378753243 -1.2078923442
