13
0 1
C 1.3915000000 0.0000000000 1.0000000000
C 0.6957500000 1.2050743494 1.0000000000
C -0.6957500000 1.2050743494 1.0000000000
C -1.3915000000 0.0000000000 1.0000000000
C -0.6957500000 -1.2050743494 1.0000000000
C 0.6957500000 -1.2050743494 1.0000000000
H 2.4715000000 -0.0000000000 1.0000000000
H 1.2357500000 2.1403817855 1.0000000000
H -1.2357500000 2.1403817855 1.0000000000
H -2.4715000000 0.0000000000 1.0000000000
H -1.2357500000 -2.1403817855 1.0000000000
H 1.2357500000 -2.1403817855 1.0000000000
Ne 0.0000000000 0.0000000000 4.5000000000
