16
0 1
C 1.3915000000 0.0000000000 1.0000000000
C 0.6957500000 1.2050743494 1.0000000000
C -0.6957500000 1.2050743494 1.0000000000
C -1.3915000000 0.0000000000 1.0000000000
C -0.6957500000 -1.2050743494 1.0000000000
C 0.6957500000 -1.2050743494 1.0000000000
H 2.4715000000 -0.0000000000 1.0000000000
H 1.2357500000 2.1403817855 1.0000000000
H -1.2357500000 2.1403817855 1.0000000000
H -2.4715000000 0.0000000000 1.0000000000
H -1.2357500000 -2.1403817855 1.0000000000
H 1.2357500000 -2.1403817855 1.0000000000
P -0.0000000000 0.0000000000 7.0000000000
H -0.0000000000 0.0000000000 5.5889500000
H -1.1980081602 0.5933673881 7.4513908433
H -0.6420106381 -1.1867347762 6.5870290398
