19
0 1
C -0.2581380000 -0.7317170000 3.4233960000
C 0.3729510000 -0.1819020000 2.1830050000
C -0.2581380000 0.5188370000 1.2495720000
C 0.3786320000 1.0607120000 0.0000000000
C -0.2581380000 0.5188370000 -1.2495720000
C 0.3729510000 -0.1819020000 -2.1830050000
C -0.2581380000 -0.7317170000 -3.4233960000
H -0.1588790000 -1.8195500000 3.4675640000
H -1.3190920000 -0.4860910000 3.4726880000
H 0.2239690000 -0.3370600000 4.3217000000
H 1.4331900000 -0.3837530000 2.0532350000
H -1.3203400000 0.7184610000 1.3688810000
H 1.4465890000 0.8353150000 0.0000000000
H 0.2838170000 2.1537860000 0.0000000000
H -1.3203400000 0.7184610000 -1.3688810000
H 1.4331900000 -0.3837530000 -2.0532350000
H -1.3190920000 -0.4860910000 -3.4726880000
H -0.1588790000 -1.8195500000 -3.4675640000
H 0.2239690000 -0.3370600000 -4.3217000000
