19
0 1
C -2.5300520000 0.4166130000 -0.3522350000
C -1.1703500000 -0.1976990000 -0.4495650000
C -3.4709410000 -0.3742470000 0.5650540000
C -0.0299340000 0.3895750000 -0.0767290000
C 1.2796350000 -0.2243620000 -0.1639110000
C 2.4190930000 0.3657030000 0.2072000000
C 3.7748960000 -0.2548490000 0.1232730000
H -1.1297170000 -1.2108920000 -0.8427120000
H -0.0656520000 1.4005270000 0.3211330000
H 1.3156900000 -1.2353700000 -0.5613920000
H 2.3733070000 1.3766010000 0.6031010000
H -2.9775790000 0.4689800000 -1.3505650000
H -2.4421130000 1.4451270000 0.0040780000
H -3.5794500000 -1.4038100000 0.2197040000
H -4.4639940000 0.0760930000 0.5913170000
H -3.0823870000 -0.4053060000 1.5833960000
H 3.7269240000 -1.2649410000 -0.2836060000
H 4.2485020000 -0.3070150000 1.1076480000
H 4.4423930000 0.3356050000 -0.5106240000
