19
0 1
C -2.4117350000 -0.3297360000 -0.4085240000
C -1.0967150000 -0.5544210000 0.2722200000
C 1.4094620000 -0.7278480000 0.3713370000
C 0.0898100000 -0.5340400000 -0.3229550000
C -3.1526510000 0.8966090000 0.1361230000
C 2.2738530000 0.4993000000 0.2843100000
C 3.4498100000 0.5613920000 -0.3250630000
H -1.1403440000 -0.7319990000 1.3448520000
H 0.1435160000 -0.3446690000 -1.3916930000
H -3.0451610000 -1.2125340000 -0.2737580000
H -2.2525140000 -0.2206670000 -1.4833000000
H 1.9455210000 -1.5723010000 -0.0713610000
H 1.2265000000 -0.9752930000 1.4209560000
H -3.3283410000 0.8033400000 1.2093300000
H -4.1205260000 1.0202250000 -0.3512050000
H -2.5700400000 1.8039510000 -0.0268710000
H 1.8644530000 1.3916840000 0.7480150000
H 3.8840520000 -0.3077500000 -0.8049340000
H 4.0218740000 1.4784820000 -0.3647270000
