19
0 1
C 0.2696260000 0.1427350000 0.5779970000
C 1.1708380000 -0.9182310000 -0.0133980000
C -1.1140700000 0.0502710000 -0.0567320000
C 2.3552480000 -0.7264380000 -0.5775680000
C -1.5926440000 0.9678090000 -0.8902830000
H 0.1294210000 -0.1340430000 1.6319940000
H 0.7858570000 -1.9305950000 0.0394700000
H 2.8070490000 0.2518040000 -0.6658560000
H 2.9202330000 -1.5575190000 -0.9773340000
H -1.0308520000 1.8456590000 -1.1730800000
H -2.5785830000 0.8640250000 -1.3238980000
C -1.9258320000 -1.1557090000 0.3271630000
H -2.9070390000 -1.1393980000 -0.1439050000
H -1.4307130000 -2.0851260000 0.0380970000
H -2.0653500000 -1.1984430000 1.4107900000
C 0.8800780000 1.5393870000 0.5520170000
H 1.8156340000 1.5558490000 1.1101730000
H 1.0949410000 1.8684350000 -0.4645040000
H 0.1999360000 2.2604120000 1.0028750000
