19
0 1
C 0.0000000000 0.3625100000 0.0000000000
C 0.8557950000 -0.8428550000 0.0000000000
C 0.6979790000 1.6969330000 0.0000000000
C -1.3374800000 0.2452400000 0.0000000000
C 0.2026080000 -2.2015120000 0.0000000000
C -2.3688260000 1.3275470000 0.0000000000
C 2.1918330000 -0.7609080000 0.0000000000
H -1.7561350000 -0.7528570000 0.0000000000
H 1.3386200000 1.8018730000 0.8775440000
H -0.0011460000 2.5268820000 0.0000000000
H 1.3386200000 1.8018730000 -0.8775440000
H -0.4302070000 -2.3415060000 0.8784180000
H 0.9571850000 -2.9852500000 0.0000000000
H -0.4302070000 -2.3415060000 -0.8784180000
H -1.9516890000 2.3309360000 0.0000000000
H -3.0188090000 1.2359450000 0.8748030000
H -3.0188090000 1.2359450000 -0.8748030000
H 2.7199960000 0.1800440000 0.0000000000
H 2.8011250000 -1.6541090000 0.0000000000
