11
0 1
C -1.5023980000 0.4917080000 0.0000000000
C 0.0000000000 0.4226230000 0.0000000000
C -0.5042980000 1.6154040000 0.0000000000
C 1.1153360000 -0.4723950000 0.0000000000
C 0.9798660000 -1.8002110000 0.0000000000
H -2.0495280000 0.2568270000 0.9115420000
H -2.0495280000 0.2568270000 -0.9115420000
H -0.3728850000 2.6812570000 0.0000000000
H 2.1027140000 -0.0235980000 0.0000000000
H -0.0004010000 -2.2578950000 0.0000000000
H 1.8385960000 -2.4561940000 0.0000000000
