14
0 1
C -0.6205800000 -0.9207790000 0.0000000000
C -0.1774480000 -2.2157620000 0.6429500000
C -0.1774480000 -2.2157620000 -0.6429500000
C 0.2544080000 0.2706680000 0.0000000000
C -0.1774480000 1.5287090000 0.0000000000
H -1.6842190000 -0.6853780000 0.0000000000
H 0.0181750000 -2.7150060000 1.5744110000
H 1.3237800000 0.0722480000 0.0000000000
H -1.2495760000 1.7086290000 0.0000000000
H 0.0181750000 -2.7150060000 -1.5744110000
C 0.6984530000 2.7412760000 0.0000000000
H 0.5099160000 3.3675810000 0.8763400000
H 1.7542020000 2.4692510000 0.0000000000
H 0.5099160000 3.3675810000 -0.8763400000
