14
0 1
C 0.0000000000 0.6065490000 0.0000000000
C -0.6446110000 1.7297050000 0.0000000000
C 0.8560120000 1.8404060000 0.0000000000
C 0.0145450000 -0.8310170000 0.0000000000
C 1.1798510000 -1.4865940000 0.0000000000
H -1.5703120000 2.2738670000 0.0000000000
H 2.1176140000 -0.9490420000 0.0000000000
H 1.3746150000 2.1330570000 0.9114610000
H 1.2200250000 -2.5672480000 0.0000000000
C -1.3220240000 -1.5196680000 0.0000000000
H -1.9040560000 -1.2286980000 0.8766390000
H -1.9040560000 -1.2286980000 -0.8766390000
H -1.2110890000 -2.6025820000 0.0000000000
H 1.3746150000 2.1330570000 -0.9114610000
