17
0 1
C 0.9165430000 0.6603270000 0.6044170000
C 0.9356750000 -0.7333680000 0.1858700000
C -0.3753290000 -0.2118320000 0.6099650000
C 1.1293360000 1.7904180000 -0.3761230000
C 1.5870180000 -1.7335820000 -0.3666570000
C -1.4587310000 -0.0094300000 -0.3673840000
C -2.7531910000 -0.1251460000 -0.0902650000
H -0.7119100000 -0.4914140000 1.6028190000
H 2.1904080000 2.0336650000 -0.4489730000
H 0.5971320000 2.6891630000 -0.0605780000
H 0.7858270000 1.5236970000 -1.3740700000
H 2.6413500000 -1.6582210000 -0.6029820000
H 1.0911810000 -2.6679300000 -0.5978140000
H -1.1545430000 0.2348230000 -1.3788250000
H -3.0998740000 -0.3794800000 0.9038270000
H -3.5082320000 0.0268970000 -0.8487440000
H 1.2807390000 0.8644700000 1.6063990000
