17
0 1
C -0.7043940000 1.6517790000 0.0000000000
C -1.4318230000 0.5560920000 0.0000000000
C 0.0000000000 0.3942510000 0.0000000000
C -2.7526800000 -0.0928560000 0.0000000000
C 1.1014880000 -0.3451640000 0.0000000000
C 2.4702640000 0.2765100000 0.0000000000
H -3.5618580000 0.6360210000 0.0000000000
H -2.8533970000 -0.7365230000 0.8765330000
H -2.8533970000 -0.7365230000 -0.8765330000
H 2.4163430000 1.3649790000 0.0000000000
H -0.6769270000 2.7270880000 0.0000000000
H 3.0503760000 -0.0303560000 0.8773670000
C 1.0395540000 -1.8480630000 0.0000000000
H 0.0106380000 -2.2080570000 0.0000000000
H 1.5416980000 -2.2707860000 -0.8772630000
H 1.5416980000 -2.2707860000 0.8772630000
H 3.0503760000 -0.0303560000 -0.8773670000
