17
0 1
C 0.4649130000 0.8390780000 0.5371870000
C 0.9957080000 -0.4990390000 0.1103610000
C -0.2972530000 -0.3758900000 0.0853230000
C 0.6037900000 2.0698460000 -0.3396130000
C 2.2259680000 -1.2797570000 -0.1001270000
C -1.6038910000 -0.9004790000 -0.1671270000
C -2.7253460000 -0.2001420000 0.0203130000
H 1.5469290000 2.5884980000 -0.1506130000
H -0.2030730000 2.7830300000 -0.1561910000
H 0.5747260000 1.7958750000 -1.3956860000
H 2.8826730000 -0.7775980000 -0.8149280000
H 2.0104710000 -2.2812240000 -0.4723300000
H 2.7875190000 -1.3689140000 0.8336570000
H -1.6595480000 -1.9225010000 -0.5277780000
H -2.6903070000 0.8205100000 0.3773980000
H -3.6982950000 -0.6268390000 -0.1773640000
H 0.4655670000 1.0674590000 1.6059360000
