17
0 1
C 0.1383200000 1.3996000000 -0.1122960000
C 0.5797340000 0.2282820000 0.1875470000
C -0.8953370000 0.4441940000 0.4455010000
C 1.6621200000 -0.7694540000 0.2668160000
C -1.9125300000 -0.1737980000 -0.4289460000
C -3.1217560000 -0.5625290000 -0.0367500000
H -1.2241510000 0.5783340000 1.4766970000
H 1.3501840000 -1.6613410000 -0.2851020000
H 1.7576500000 -1.0938840000 1.3079920000
H -1.6171560000 -0.3067140000 -1.4666330000
H -3.4472270000 -0.4415020000 0.9896500000
H -3.8258650000 -1.0108960000 -0.7236120000
H 0.2936000000 2.3903890000 -0.4976210000
C 2.9992990000 -0.2504240000 -0.2589410000
H 3.3261100000 0.6215880000 0.3078470000
H 3.7722310000 -1.0150340000 -0.1815600000
H 2.9155330000 0.0438320000 -1.3052500000
