17
0 1
C -1.5518000000 -1.2671450000 -0.3349690000
C -1.8003930000 -0.0478790000 -0.0056870000
C -0.4586200000 -0.5771360000 0.4513140000
C -2.6490400000 1.1547060000 -0.0011810000
C 0.7922630000 -0.1357260000 -0.2008530000
C 1.9720860000 -0.0263550000 0.4040250000
H -0.3384730000 -0.8326050000 1.5049940000
H -3.5752260000 0.9948980000 -0.5532200000
H -2.1152350000 1.9970170000 -0.4463140000
H -2.8967570000 1.4422000000 1.0232870000
H 0.7108420000 0.1120450000 -1.2572720000
H 2.0389370000 -0.2800220000 1.4590680000
H -1.8344600000 -2.1779550000 -0.8309420000
C 3.2400540000 0.4208460000 -0.2523490000
H 4.0141830000 -0.3490280000 -0.1891460000
H 3.0813930000 0.6536310000 -1.3056910000
H 3.6474920000 1.3119440000 0.2334350000
