17
0 1
C -1.6860870000 -1.2779420000 -0.0548520000
C -1.6794060000 0.1196810000 0.4932570000
C -0.5200980000 -0.7127770000 0.0218020000
C -2.1950050000 1.2988700000 -0.3092480000
C 0.8958450000 -0.7204900000 -0.1697410000
C 1.6770330000 0.3187790000 0.1442180000
H -3.2706360000 1.4312510000 -0.1694040000
H -2.0091370000 1.1516570000 -1.3742190000
H -1.7091820000 2.2296760000 -0.0066210000
H 1.3352690000 -1.6201200000 -0.5901490000
H 1.2051060000 1.2032730000 0.5598830000
H -2.2892150000 -2.1264730000 -0.3215440000
C 3.1568360000 0.3623750000 -0.0327380000
H 3.6603110000 0.5394260000 0.9216310000
H 3.5394990000 -0.5669360000 -0.4538950000
H 3.4484280000 1.1840640000 -0.6926700000
H -1.8051590000 0.2432000000 1.5708010000
