14
0 1
C 0.0000000000 1.0979810000 0.0000000000
C 0.0000000000 -1.0979810000 0.0000000000
C -1.0591240000 0.0000000000 0.0000000000
C 1.0591240000 0.0000000000 0.0000000000
C -2.3792870000 0.0000000000 0.0000000000
C 2.3792870000 0.0000000000 0.0000000000
H 0.0000000000 1.7387380000 0.8844830000
H 0.0000000000 1.7387380000 -0.8844830000
H 0.0000000000 -1.7387380000 0.8844830000
H 0.0000000000 -1.7387380000 -0.8844830000
H -2.9441530000 -0.9234950000 0.0000000000
H -2.9441530000 0.9234950000 0.0000000000
H 2.9441530000 -0.9234950000 0.0000000000
H 2.9441530000 0.9234950000 0.0000000000
