17
0 1
C -0.6188030000 -0.0068590000 0.4988500000
C -1.6786240000 1.0513620000 -0.0073960000
C -1.6475340000 -1.0424770000 0.0564980000
C -2.5372440000 -0.1426670000 -0.3637850000
H -2.0657630000 1.7122630000 0.7702190000
C 0.6957310000 -0.0151940000 -0.2014440000
H 0.6502630000 -0.0417800000 -1.2880970000
C 1.8815390000 -0.0003870000 0.3976950000
H 1.9133720000 0.0211810000 1.4840470000
H -1.6280310000 -2.1237840000 0.0813580000
H -3.5245310000 -0.2210210000 -0.7982460000
H -1.3335510000 1.6590190000 -0.8451740000
C 3.2028900000 -0.0104800000 -0.3036120000
H 3.0787750000 -0.0321460000 -1.3863770000
H 3.7935680000 0.8728710000 -0.0466110000
H 3.7986650000 -0.8796010000 -0.0121970000
H -0.4705030000 0.0332150000 1.5802450000
