17
0 1
C -0.2809380000 -0.5062910000 -0.4231890000
C 1.0376740000 0.3862810000 -0.5144420000
C 0.6283240000 -1.5327830000 0.2384290000
C 1.7271840000 -0.7822620000 0.1619740000
H 1.3396420000 0.5188660000 -1.5569770000
C -1.4171430000 0.0185700000 0.3841480000
H -1.1893440000 0.2957030000 1.4082280000
C -2.6610080000 0.1522620000 -0.0599460000
H -3.4516850000 0.5360690000 0.5704060000
H -2.9312540000 -0.1208630000 -1.0730360000
H 0.4230790000 -2.5248690000 0.6178190000
H 2.7568920000 -0.9384820000 0.4558010000
C 1.0513500000 1.7315330000 0.1920440000
H 2.0444210000 2.1808070000 0.1344050000
H 0.3424520000 2.4223330000 -0.2669690000
H 0.7937130000 1.6333080000 1.2465610000
H -0.6405720000 -0.8067300000 -1.4103440000
