17
0 1
C 0.2750060000 0.0779430000 -0.1682540000
C -1.2147590000 -0.2118590000 -0.4608580000
C -0.0983210000 1.4530050000 0.1903240000
C -1.4072700000 1.2470020000 -0.0439070000
H -1.4059980000 -0.3834610000 -1.5240770000
C 1.3800440000 -0.6569090000 -0.2101000000
H 1.2933590000 -1.6924010000 -0.5244660000
C 2.7502100000 -0.1710810000 0.1474730000
H 2.7375620000 0.8744450000 0.4536410000
H 3.1772690000 -0.7571540000 0.9657240000
H 3.4369210000 -0.2662930000 -0.6979660000
H 0.4698940000 2.3131640000 0.5155310000
H -2.2867520000 1.8702930000 0.0298620000
C -1.8904430000 -1.2847670000 0.3790890000
H -2.9728980000 -1.2684080000 0.2374580000
H -1.5343200000 -2.2783960000 0.1029180000
H -1.6818330000 -1.1318000000 1.4387740000
