14
0 1
C 0.0000000000 1.2363990000 -0.0827960000
C 0.0000000000 -1.2363990000 -0.0827960000
C 0.0000000000 0.0000000000 0.8055060000
C 0.0000000000 0.6641390000 -1.4753560000
C 0.0000000000 -0.6641390000 -1.4753560000
C 0.0000000000 0.0000000000 2.1305560000
H 0.8749530000 1.8672810000 0.1016550000
H -0.8749530000 1.8672810000 0.1016550000
H 0.8749530000 -1.8672810000 0.1016550000
H -0.8749530000 -1.8672810000 0.1016550000
H 0.0000000000 1.2843450000 -2.3607410000
H 0.0000000000 -1.2843450000 -2.3607410000
H 0.0000000000 -0.9216910000 2.6981540000
H 0.0000000000 0.9216910000 2.6981540000
