16
0 1
C -0.7633570000 -0.4924900000 0.0000000000
C -2.2607310000 -0.3902200000 0.0000000000
C -0.2332490000 -1.8962150000 0.0000000000
C 0.0000000000 0.6113350000 0.0000000000
C 1.4473770000 0.6810280000 0.0000000000
C 2.1376830000 1.8241110000 0.0000000000
H -2.6854710000 -0.8896480000 0.8759010000
H -2.6854710000 -0.8896480000 -0.8759010000
H -2.5971560000 0.6452080000 0.0000000000
H -0.5986410000 -2.4401210000 -0.8756440000
H 0.8515790000 -1.9496730000 0.0000000000
H -0.5986410000 -2.4401210000 0.8756440000
H -0.5069530000 1.5717550000 0.0000000000
H 1.9981730000 -0.2518600000 0.0000000000
H 1.6379710000 2.7850880000 0.0000000000
H 3.2182780000 1.8337160000 0.0000000000
