17
0 1
C 0.6579880000 -1.2207650000 0.0000000000
C -0.8445410000 -1.2856160000 0.0000000000
C 0.0000000000 1.0323680000 0.0000000000
C 1.1253190000 0.0257640000 0.0000000000
C -1.2571640000 0.1795780000 0.0000000000
C 2.5519300000 0.4592380000 0.0000000000
C -2.5021190000 0.6333340000 0.0000000000
H -1.2367360000 -1.8141020000 0.8745900000
H -1.2367360000 -1.8141020000 -0.8745900000
H 3.2311920000 -0.3923500000 0.0000000000
H 2.7743200000 1.0743340000 -0.8764860000
H -3.3506240000 -0.0388910000 0.0000000000
H -2.7203560000 1.6936180000 0.0000000000
H 2.7743200000 1.0743340000 0.8764860000
H 0.0478730000 1.6897400000 0.8745460000
H 1.2803940000 -2.1057210000 0.0000000000
H 0.0478730000 1.6897400000 -0.8745460000
