17
0 1
C -1.2120310000 -1.0154690000 0.2671310000
C -1.7880710000 0.3644210000 0.0982660000
C 0.2505920000 -0.8305020000 -0.1066370000
C -0.8751980000 1.2452780000 -0.2939350000
C 0.4977180000 0.6381350000 -0.4446230000
C 1.1660740000 -1.7881310000 -0.1350880000
H -1.3275730000 -1.3866340000 1.2901940000
H -1.7042980000 -1.7480510000 -0.3796910000
H -2.8303830000 0.5875550000 0.2788110000
H -1.0617580000 2.2948520000 -0.4771030000
H 0.9258680000 -2.8123130000 0.1199460000
H 2.1918910000 -1.5858730000 -0.4154250000
C 1.5491180000 1.3043130000 0.4527640000
H 1.2584220000 1.2292620000 1.5010080000
H 2.5208210000 0.8249400000 0.3344900000
H 1.6595350000 2.3609340000 0.2028200000
H 0.8382660000 0.7270570000 -1.4823130000
