17
0 1
C 1.3857040000 0.8618590000 0.0012940000
C 1.8248640000 -0.6230610000 -0.0009370000
C -0.1337890000 0.8309440000 0.0001230000
C 0.5259350000 -1.3768440000 -0.0001830000
C -0.5477590000 -0.5762620000 0.0002280000
C -0.9450290000 1.8894110000 -0.0008630000
H 1.7604990000 1.3897220000 0.8781940000
H 1.7622810000 1.3934340000 -0.8725590000
H 2.4342680000 -0.8736990000 0.8714130000
H 2.4316560000 -0.8716750000 -0.8757210000
H 0.4801510000 -2.4578760000 -0.0003780000
H -0.5586790000 2.8997750000 -0.0010700000
H -2.0204570000 1.7779510000 -0.0014220000
C -1.9791650000 -0.9987430000 0.0003910000
H -2.5008720000 -0.6086400000 0.8773430000
H -2.5008490000 -0.6092930000 -0.8768710000
H -2.0725670000 -2.0835170000 0.0007530000
