16
0 1
C 0.9958100000 0.1560130000 0.0802080000
C 1.6057310000 1.2742150000 -0.2980660000
C 1.5846170000 -1.2024670000 -0.1709000000
C -0.3348390000 0.1933430000 0.8000640000
C -1.4516680000 -0.4540570000 0.0292500000
C -2.5290400000 0.1822170000 -0.4079550000
H 1.1702610000 2.2471950000 -0.1120010000
H 2.5601720000 1.2534720000 -0.8078820000
H 0.9401640000 -1.7993270000 -0.8202940000
H 2.5636580000 -1.1315140000 -0.6413570000
H -1.3477630000 -1.5148430000 -0.1738920000
H -2.6725300000 1.2408820000 -0.2275950000
H -3.3054040000 -0.3291550000 -0.9607580000
H -0.2224280000 -0.3294680000 1.7580690000
H -0.6004790000 1.2261730000 1.0256510000
H 1.6906840000 -1.7589970000 0.7644600000
