16
0 1
C -1.3175380000 0.3826850000 0.0000000000
C -2.3541240000 1.4587910000 0.0000000000
C 0.0000000000 0.5980190000 0.0000000000
C 1.0396390000 -0.4277160000 0.0000000000
C 2.3295880000 -0.0730200000 0.0000000000
H -1.6891740000 -0.6363440000 0.0000000000
H 0.3572580000 1.6239200000 0.0000000000
H -1.9018640000 2.4505050000 0.0000000000
H -3.0050710000 1.3804890000 0.8750030000
H -3.0050710000 1.3804890000 -0.8750030000
H 2.6260650000 0.9677480000 0.0000000000
H 3.1211580000 -0.8096940000 0.0000000000
C 0.6279210000 -1.8738110000 0.0000000000
H 0.0227410000 -2.1099240000 0.8779210000
H 0.0227410000 -2.1099240000 -0.8779210000
H 1.4983040000 -2.5269490000 0.0000000000
