12
0 1
C -2.0085000000 0.0000000000 1.0000000000
C -2.7042500000 -1.2050740000 1.0000000000
C -4.0957500000 -1.2050740000 1.0000000000
C -4.7915000000 0.0000000000 1.0000000000
C -4.0957500000 1.2050740000 1.0000000000
C -2.7042500000 1.2050740000 1.0000000000
H -0.9285000000 0.0000000000 1.0000000000
H -2.1642500000 -2.1403820000 1.0000000000
H -4.6357500000 -2.1403820000 1.0000000000
H -5.8715000000 0.0000000000 1.0000000000
H -4.6357500000 2.1403820000 1.0000000000
H -2.1642500000 2.1403820000 1.0000000000
