24
0 1
C 1.0000000000 0.0000000000 -0.3915000000
C 1.0000000000 1.2050740000 0.3042500000
C 1.0000000000 1.2050740000 1.6957500000
C 1.0000000000 0.0000000000 2.3915000000
C 1.0000000000 -1.2050740000 1.6957500000
C 1.0000000000 -1.2050740000 0.3042500000
H 1.0000000000 0.0000000000 -1.4715000000
H 1.0000000000 2.1403820000 -0.2357500000
H 1.0000000000 2.1403820000 2.2357500000
H 1.0000000000 0.0000000000 3.4715000000
H 1.0000000000 -2.1403820000 2.2357500000
H 1.0000000000 -2.1403820000 -0.2357500000
C -2.1085000000 0.0000000000 1.0000000000
C -2.8042500000 -1.2050740000 1.0000000000
C -4.1957500000 -1.2050740000 1.0000000000
C -4.8915000000 0.0000000000 1.0000000000
C -4.1957500000 1.2050740000 1.0000000000
C -2.8042500000 1.2050740000 1.0000000000
H -1.0285000000 0.0000000000 1.0000000000
H -2.2642500000 -2.1403820000 1.0000000000
H -4.7357500000 -2.1403820000 1.0000000000
H -5.9715000000 0.0000000000 1.0000000000
H -4.7357500000 2.1403820000 1.0000000000
H -2.2642500000 2.1403820000 1.0000000000
