24
0 1
C 1.0000000000 0.0000000000 -0.3915000000
C 1.0000000000 1.2050740000 0.3042500000
C 1.0000000000 1.2050740000 1.6957500000
C 1.0000000000 0.0000000000 2.3915000000
C 1.0000000000 -1.2050740000 1.6957500000
C 1.0000000000 -1.2050740000 0.3042500000
H 1.0000000000 0.0000000000 -1.4715000000
H 1.0000000000 2.1403820000 -0.2357500000
H 1.0000000000 2.1403820000 2.2357500000
H 1.0000000000 0.0000000000 3.4715000000
H 1.0000000000 -2.1403820000 2.2357500000
H 1.0000000000 -2.1403820000 -0.2357500000
C -3.6085000000 0.0000000000 1.0000000000
C -4.3042500000 -1.2050740000 1.0000000000
C -5.6957500000 -1.2050740000 1.0000000000
C -6.3915000000 0.0000000000 1.0000000000
C -5.6957500000 1.2050740000 1.0000000000
C -4.3042500000 1.2050740000 1.0000000000
H -2.5285000000 0.0000000000 1.0000000000
H -3.7642500000 -2.1403820000 1.0000000000
H -6.2357500000 -2.1403820000 1.0000000000
H -7.4715000000 0.0000000000 1.0000000000
H -6.2357500000 2.1403820000 1.0000000000
H -3.7642500000 2.1403820000 1.0000000000
