24
0 1
C 1.0000000000 0.0000000000 -0.3915000000
C 1.0000000000 1.2050740000 0.3042500000
C 1.0000000000 1.2050740000 1.6957500000
C 1.0000000000 0.0000000000 2.3915000000
C 1.0000000000 -1.2050740000 1.6957500000
C 1.0000000000 -1.2050740000 0.3042500000
H 1.0000000000 0.0000000000 -1.4715000000
H 1.0000000000 2.1403820000 -0.2357500000
H 1.0000000000 2.1403820000 2.2357500000
H 1.0000000000 0.0000000000 3.4715000000
H 1.0000000000 -2.1403820000 2.2357500000
H 1.0000000000 -2.1403820000 -0.2357500000
C -5.1085000000 0.0000000000 1.0000000000
C -5.8042500000 -1.2050740000 1.0000000000
C -7.1957500000 -1.2050740000 1.0000000000
C -7.8915000000 0.0000000000 1.0000000000
C -7.1957500000 1.2050740000 1.0000000000
C -5.8042500000 1.2050740000 1.0000000000
H -4.0285000000 0.0000000000 1.0000000000
H -5.2642500000 -2.1403820000 1.0000000000
H -7.7357500000 -2.1403820000 1.0000000000
H -8.9715000000 0.0000000000 1.0000000000
H -7.7357500000 2.1403820000 1.0000000000
H -5.2642500000 2.1403820000 1.0000000000
