17
0 1
C 1.4057310000 0.0000000000 1.0000000000
C 0.7028650000 1.2173990000 1.0000000000
C -0.7028650000 1.2173990000 1.0000000000
C -1.4057310000 0.0000000000 1.0000000000
C -0.7028650000 -1.2173990000 1.0000000000
C 0.7028660000 -1.2173990000 1.0000000000
H 2.5009410000 0.0000000000 1.0000000000
H 1.2504710000 2.1658780000 1.0000000000
H -1.2504700000 2.1658780000 1.0000000000
H -2.5009410000 0.0000000000 1.0000000000
H -1.2504700000 -2.1658780000 1.0000000000
H 1.2504710000 -2.1658780000 1.0000000000
C 0.0000000000 0.0000000000 -4.4000000000
H 0.0000000000 0.0000000000 -3.3004970000
H 1.0366210000 0.0000000000 -4.7665010000
H -0.5183110000 -0.8977410000 -4.7665010000
H -0.5183110000 0.8977410000 -4.7665010000
