22
0 1
N 1.3980380000 0.0000000000 0.0000000000
C 0.6985370000 1.1401300000 0.0000000000
C -0.6941820000 1.1953400000 0.0000000000
C -1.4067470000 0.0000000000 0.0000000000
C -0.6941820000 -1.1953400000 0.0000000000
C 0.6985370000 -1.1401300000 0.0000000000
H 1.2816690000 2.0568850000 0.0000000000
H -1.1999250000 2.1525480000 0.0000000000
H -2.4885470000 0.0000000000 0.0000000000
H -1.1999250000 -2.1525480000 0.0000000000
H 1.2816690000 -2.0568850000 0.0000000000
N -1.3980380000 0.0000000000 6.0000000000
C -0.6985370000 0.0000000000 7.1401300000
C 0.6941820000 0.0000000000 7.1953400000
C 1.4067470000 0.0000000000 6.0000000000
C 0.6941820000 0.0000000000 4.8046600000
C -0.6985370000 0.0000000000 4.8598700000
H -1.2816690000 0.0000000000 8.0568850000
H 1.1999250000 0.0000000000 8.1525480000
H 2.4885470000 0.0000000000 6.0000000000
H 1.1999250000 0.0000000000 3.8474520000
H -1.2816690000 0.0000000000 3.9431150000
