8
0 1
C -0.0770160000 0.5519860000 0.0274080000
H -0.2382950000 1.6253540000 0.1182690000
C 1.1396060000 -0.1932080000 -0.0314960000
H 1.3550440000 -0.6980940000 0.9080340000
H -0.0739070000 -1.1349000000 -0.2458110000
H 2.0289490000 0.2232280000 -0.4941710000
N -1.0650940000 -0.3000040000 -0.0788080000
H -1.9916730000 -0.0682290000 0.2898600000
