9
0 1
C 0.0572270000 -0.4045480000 0.0000000000
H 0.0948810000 -1.4903740000 0.0000000000
C 0.0572270000 0.1934710000 1.2904650000
H 0.0160710000 1.2659970000 1.4106720000
H -1.0682720000 -0.0714370000 0.0000000000
H -0.0444180000 -0.4322720000 2.1609200000
C 0.0572270000 0.1934710000 -1.2904650000
H -0.0444180000 -0.4322720000 -2.1609200000
H 0.0160710000 1.2659970000 -1.4106720000
