10
0 1
C 0.0039840000 1.1282040000 0.0000000000
H 0.0037570000 2.2143760000 0.0000000000
N 0.0039840000 0.4669720000 1.1340220000
H -0.0094790000 -0.6573630000 0.9368140000
H 0.0069180000 0.9736790000 2.0011390000
H -0.0094790000 -0.6573630000 -0.9368140000
O 0.0672910000 -1.7200050000 0.0000000000
H -0.6166380000 -2.3938090000 0.0000000000
N 0.0039840000 0.4669720000 -1.1340220000
H 0.0069180000 0.9736790000 -2.0011390000
