11
0 1
C 0.0000000000 0.0000000000 1.5793070000
H 0.0000000000 0.0000000000 2.6782940000
H 0.0000000000 1.2288890000 -0.3245360000
H 0.0000000000 -1.2288890000 -0.3245360000
O 0.0254370000 -1.1963760000 -1.4244840000
O 0.0034910000 1.1307520000 1.0265780000
O -0.0034910000 -1.1307520000 1.0265780000
O -0.0254370000 1.1963760000 -1.4244840000
H 0.0000000000 0.0000000000 -1.5829620000
H 0.7540720000 1.6368200000 -1.7777710000
H -0.7540720000 -1.6368200000 -1.7777710000
