8
0 1
B 0.0000000000 0.0000000000 -1.1203818711
P 0.0000000000 0.0000000000 0.8383084919
H -0.6235956031 -1.0800992679 1.5013903085
H -0.6235956031 1.0800992679 1.5013903085
H 1.2471912061 0.0000000000 1.5013903085
H 0.5865484792 1.0159317671 -1.4073658488
H -1.1730969584 0.0000000000 -1.4073658488
H 0.5865484792 -1.0159317671 -1.4073658488
