12
0 1
N 0.7019497080 1.2158125587 0.0000000000
B 1.4448604393 0.0000000000 0.0000000000
N 0.7019497080 -1.2158125587 0.0000000000
B -0.7224302197 -1.2512858454 0.0000000000
N -1.4038994161 0.0000000000 0.0000000000
B -0.7224302197 1.2512858454 0.0000000000
H 1.2045219597 2.0862932330 0.0000000000
H 2.6413181351 0.0000000000 0.0000000000
H 1.2045219597 -2.0862932330 0.0000000000
H -1.3206590676 -2.2874486045 0.0000000000
H -2.4090439193 0.0000000000 0.0000000000
H -1.3206590676 2.2874486045 0.0000000000
