12
0 1
N 0.0000000000 0.0000000000 -1.1543773390
B 0.0000000000 -1.1050073203 0.0000000000
N 0.0000000000 0.0000000000 1.1543773390
B 0.0000000000 1.1050073203 0.0000000000
H -0.8166222844 0.0000000000 -1.7459190451
H 0.8166222844 0.0000000000 -1.7459190451
H -1.0165660438 -1.7529556318 0.0000000000
H 1.0165660438 -1.7529556318 0.0000000000
H 0.8166222844 0.0000000000 1.7459190451
H -0.8166222844 0.0000000000 1.7459190451
H -1.0165660438 1.7529556318 0.0000000000
H 1.0165660438 1.7529556318 0.0000000000
