18
0 1
B -0.7818899294 1.3542730837 -0.2060826823
N -1.4763447510 0.0000000000 0.2285091833
B -0.7818899294 -1.3542730837 -0.2060826823
N 0.7381723755 -1.2785520591 0.2285091833
B 1.5637798588 0.0000000000 -0.2060826823
N 0.7381723755 1.2785520591 0.2285091833
H -1.3177703435 2.2824451876 0.3664751706
H -0.8321087207 1.4412545816 -1.4079806514
H -1.6710399639 0.0000000000 1.2254105858
H -2.3928474684 0.0000000000 -0.2063316060
H -0.8321087207 -1.4412545816 -1.4079806514
H -1.3177703435 -2.2824451876 0.3664751706
H 0.8355199820 -1.4471630595 1.2254105858
H 1.1964237342 -2.0722666950 -0.2063316060
H 1.6642174413 0.0000000000 -1.4079806514
H 2.6355406870 0.0000000000 0.3664751706
H 0.8355199820 1.4471630595 1.2254105858
H 1.1964237342 2.0722666950 -0.2063316060
