19
0 1
P -0.6262579192 -0.0478346016 0.1405303393
B 2.9790478695 -0.0106300166 0.2591359194
C -1.1419945753 1.6603551473 0.3784221011
C -0.5376183840 -0.4511929773 -1.6046711901
C -1.8164649771 -1.1510105502 0.9357627466
H -2.1059768737 1.8314954766 -0.1034960202
H -1.2239999837 1.8712214537 1.4455774540
H -0.3761672989 2.3014731597 -0.0584963711
H -2.7977253518 -1.0492447506 0.4698535342
H -1.4692630868 -2.1795931593 0.8270541166
H -1.8925979340 -0.9107879823 1.9970411011
H -1.5164265950 -0.2809457375 -2.0584622162
H -0.2364386768 -1.4925689719 -1.7089015624
H 0.2252765729 0.1774543807 -2.0621264599
Cl 2.2301740301 1.4592738584 -0.7611983079
Cl 2.4320891265 -1.6539304128 -0.5561487879
Cl 4.8034476539 0.1250740473 0.3350334979
H 0.5950786600 -0.2411259446 0.7763342184
H 2.4758177435 0.0425175809 1.3487558872
