10
0 1
P -1.2142086318 -0.0081145025 0.0128749376
B 1.4960771937 0.0038614637 -0.0133164148
H -2.5736579286 0.1638989678 -0.4219370273
H -0.6773940625 1.1090938079 -0.6235664072
H -1.0425953586 -1.2878736936 -0.5112013471
H -1.4969356954 0.0905623378 1.3789881781
H 1.5753235191 1.2062819903 0.0958204368
H 2.2844681626 -0.6555120425 0.6133065897
H 1.2797074113 -0.3712079003 -1.1465038080
H 0.3692153902 -0.2509904287 0.6155348623
