8
0 1
N -0.0424751043 -2.5549044386 0.0000000000
H 0.1304688357 -3.1362713886 0.8110597600
H 0.1304688357 -3.1362713886 -0.8110597600
H 0.6673919857 -1.8301641886 0.0000000000
N 0.0424751043 2.5549044386 0.0000000000
H -0.1304688357 3.1362713886 0.8110597600
H -0.6673919857 1.8301641886 0.0000000000
H -0.1304688357 3.1362713886 -0.8110597600
