8
0 1
N -0.0462281972 -2.0709988343 0.0000000000
H 0.1267157428 -2.6523657843 0.8110597600
H 0.1267157428 -2.6523657843 -0.8110597600
H 0.6636388928 -1.3462585843 0.0000000000
N 0.0462281972 2.0709988343 0.0000000000
H -0.1267157428 2.6523657843 0.8110597600
H -0.6636388928 1.3462585843 0.0000000000
H -0.1267157428 2.6523657843 -0.8110597600
