8
0 1
N -0.0399730424 -2.8775081748 0.0000000000
H 0.1329708976 -3.4588751248 0.8110597600
H 0.1329708976 -3.4588751248 -0.8110597600
H 0.6698940476 -2.1527679248 0.0000000000
N 0.0399730424 2.8775081748 0.0000000000
H -0.1329708976 3.4588751248 0.8110597600
H -0.6698940476 2.1527679248 0.0000000000
H -0.1329708976 3.4588751248 -0.8110597600
