8
0 1
N -0.0387220115 -3.0388100429 0.0000000000
H 0.1342219285 -3.6201769929 0.8110597600
H 0.1342219285 -3.6201769929 -0.8110597600
H 0.6711450785 -2.3140697929 0.0000000000
N 0.0387220115 3.0388100429 0.0000000000
H -0.1342219285 3.6201769929 0.8110597600
H -0.6711450785 2.3140697929 0.0000000000
H -0.1342219285 3.6201769929 -0.8110597600
