9
0 1
N -0.0000000001 0.0000000000 3.2901662791
H 0.9373097899 0.0000000000 3.6738970991
H -0.4686548901 -0.8117340900 3.6738970991
H -0.4686548901 0.8117340900 3.6738970991
H -0.0000000005 0.0000000000 -2.2688066028
C -0.0000000005 0.0000000000 -3.3574723828
H 0.5125143895 0.8877009600 -3.7247861128
H 0.5125143895 -0.8877009600 -3.7247861128
H -1.0250287805 0.0000000000 -3.7247861128
