9
0 1
N -0.0000000002 0.0000000000 2.6975238751
H 0.9373097898 0.0000000000 3.0812546951
H -0.4686548902 -0.8117340900 3.0812546951
H -0.4686548902 0.8117340900 3.0812546951
H -0.0000000004 0.0000000000 -1.6761641988
C -0.0000000004 0.0000000000 -2.7648299788
H 0.5125143896 0.8877009600 -3.1321437088
H 0.5125143896 -0.8877009600 -3.1321437088
H -1.0250287804 0.0000000000 -3.1321437088
