9
0 1
N -0.0000000002 0.0000000000 2.4999764071
H 0.9373097898 0.0000000000 2.8837072271
H -0.4686548902 -0.8117340900 2.8837072271
H -0.4686548902 0.8117340900 2.8837072271
H -0.0000000004 0.0000000000 -1.4786167308
C -0.0000000004 0.0000000000 -2.5672825108
H 0.5125143896 0.8877009600 -2.9345962408
H 0.5125143896 -0.8877009600 -2.9345962408
H -1.0250287804 0.0000000000 -2.9345962408
