9
0 1
N -0.0000000003 0.0000000000 1.7097865352
H 0.9373097897 0.0000000000 2.0935173552
H -0.4686548903 -0.8117340900 2.0935173552
H -0.4686548903 0.8117340900 2.0935173552
H -0.0000000003 0.0000000000 -0.6884268589
C -0.0000000003 0.0000000000 -1.7770926389
H 0.5125143897 0.8877009600 -2.1444063689
H 0.5125143897 -0.8877009600 -2.1444063689
H -1.0250287803 0.0000000000 -2.1444063689
