9
0 1
N -0.0000000001 0.0000000000 3.0926188111
H 0.9373097899 0.0000000000 3.4763496311
H -0.4686548901 -0.8117340900 3.4763496311
H -0.4686548901 0.8117340900 3.4763496311
H -0.0000000005 0.0000000000 -2.0712591348
C -0.0000000005 0.0000000000 -3.1599249148
H 0.5125143895 0.8877009600 -3.5272386448
H 0.5125143895 -0.8877009600 -3.5272386448
H -1.0250287805 0.0000000000 -3.5272386448
