8
0 1
O -0.0050861144 0.0000000000 2.7710082689
H 0.0317638856 0.7575500000 3.3567582689
H 0.0317638856 -0.7575500000 3.3567582689
C 0.0009752532 0.0000000000 -2.8358633351
H -0.5071347468 0.8875900000 -3.2089133351
H 1.0308152532 0.0000000000 -3.1888333351
H -0.0128547468 0.0000000000 -1.7479133351
H -0.5071347468 -0.8875900000 -3.2089133351
