8
0 1
O -0.0053426614 0.0000000000 3.5274249104
H 0.0315073386 0.7575500000 4.1131749104
H 0.0315073386 -0.7575500000 4.1131749104
C 0.0012318002 0.0000000000 -3.5922799766
H -0.5068781998 0.8875900000 -3.9653299766
H 1.0310718002 0.0000000000 -3.9452499766
H -0.0125981998 0.0000000000 -2.5043299766
H -0.5068781998 -0.8875900000 -3.9653299766
