8
0 1
C 0.0000000000 0.6012396512 -1.3538166539
O 0.0000000000 -0.5930182888 -1.5520671039
H 0.9354225000 1.1742760912 -1.2651282139
H -0.9354225000 1.1742760912 -1.2651282139
C 0.0000000000 -0.6020049088 1.5523117661
O 0.0000000000 0.5923862312 1.3551363861
H 0.0000000000 -1.0093799688 2.5752694561
H 0.0000000000 -1.3200292088 0.7169730761
