8
0 1
C 0.0000000000 0.6041344896 -2.6619870664
O 0.0000000000 -0.5901234504 -2.8602375163
H 0.9354225000 1.1771709296 -2.5732986264
H -0.9354225000 1.1771709296 -2.5732986264
C 0.0000000000 -0.6048997472 2.8604821786
O 0.0000000000 0.5894913928 2.6633067986
H 0.0000000000 -1.0122748072 3.8834398686
H 0.0000000000 -1.3229240472 2.0251434886
