8
0 1
C 0.0000000000 0.6028478948 -2.0805779941
O 0.0000000000 -0.5914100452 -2.2788284441
H 0.9354225000 1.1758843348 -1.9918895541
H -0.9354225000 1.1758843348 -1.9918895541
C 0.0000000000 -0.6036131524 2.2790731064
O 0.0000000000 0.5907779876 2.0818977264
H 0.0000000000 -1.0109882124 3.3020307964
H 0.0000000000 -1.3216374524 1.4437344164
