8
0 1
C 0.0000000000 0.6031695435 -2.2259302622
O 0.0000000000 -0.5910883965 -2.4241807122
H 0.9354225000 1.1762059835 -2.1372418222
H -0.9354225000 1.1762059835 -2.1372418222
C 0.0000000000 -0.6039348011 2.4244253744
O 0.0000000000 0.5904563389 2.2272499944
H 0.0000000000 -1.0113098611 3.4473830644
H 0.0000000000 -1.3219591011 1.5890866844
