9
0 1
C 0.0231383273 -0.6680624600 2.8220921652
C 0.0231383273 0.6680624600 2.8220921652
H 0.8811822373 1.2326793300 2.4781522252
H -0.8335327727 1.2325849500 3.1691379252
H -0.8335327727 -1.2325849500 3.1691379252
H 0.8811822373 -1.2326793300 2.4781522252
H -0.8034425803 0.0000000000 -3.3094861248
O 0.0368881397 0.0000000000 -2.8487162849
H -0.1972617703 0.0000000000 -1.9161451848
