9
0 1
C 0.0204045576 -0.6680624600 2.4900550480
C 0.0204045576 0.6680624600 2.4900550480
H 0.8784484676 1.2326793300 2.1461151080
H -0.8362665424 1.2325849500 2.8371008080
H -0.8362665424 -1.2325849500 2.8371008080
H 0.8784484676 -1.2326793300 2.1461151080
H -0.8007088107 0.0000000000 -2.9774490077
O 0.0396219093 0.0000000000 -2.5166791677
H -0.1945280007 0.0000000000 -1.5841080677
