9
0 1
C 0.0163039031 -0.6680624600 1.9919993723
C 0.0163039031 0.6680624600 1.9919993723
H 0.8743478131 1.2326793300 1.6480594323
H -0.8403671969 1.2325849500 2.3390451323
H -0.8403671969 -1.2325849500 2.3390451323
H 0.8743478131 -1.2326793300 1.6480594323
H -0.7966081562 0.0000000000 -2.4793933320
O 0.0437225638 0.0000000000 -2.0186234920
H -0.1904273462 0.0000000000 -1.0860523920
