9
0 1
C 0.0258720969 -0.6680624600 3.1541292823
C 0.0258720969 0.6680624600 3.1541292823
H 0.8839160069 1.2326793300 2.8101893423
H -0.8307990031 1.2325849500 3.5011750423
H -0.8307990031 -1.2325849500 3.5011750423
H 0.8839160069 -1.2326793300 2.8101893423
H -0.8061763500 0.0000000000 -3.6415232420
O 0.0341543700 0.0000000000 -3.1807534020
H -0.1999955400 0.0000000000 -2.2481823020
