9
0 1
C 0.0122032486 -0.6680624600 1.4939436966
C 0.0122032486 0.6680624600 1.4939436966
H 0.8702471586 1.2326793300 1.1500037566
H -0.8444678514 1.2325849500 1.8409894566
H -0.8444678514 -1.2325849500 1.8409894566
H 0.8702471586 -1.2326793300 1.1500037566
H -0.7925075017 0.0000000000 -1.9813376563
O 0.0478232183 0.0000000000 -1.5205678163
H -0.1863266917 0.0000000000 -0.5879967163
