10
0 1
O 0.0000000000 -0.4901515602 -2.4448072169
C 0.0000000000 0.7147784398 -2.3534372169
H 0.0000000000 1.2176484398 -1.3727972169
H 0.0000000000 1.3593884398 -3.2482072169
C 0.0000000000 -0.6206352111 1.9684296432
C 0.0000000000 0.3986447889 2.8305796432
H 0.9211300000 -1.0522352111 1.5975396432
H -0.9211300000 -1.0522352111 1.5975396432
H -0.9239400000 0.8285847889 3.1979496432
H 0.9239400000 0.8285847889 3.1979496432
