10
0 1
O 0.0000000000 -0.4474151845 -3.3675962669
C 0.0000000000 0.7575148155 -3.2762262669
H 0.0000000000 1.2603848155 -2.2955862669
H 0.0000000000 1.4021248155 -4.1709962669
C 0.0000000000 -0.6633715868 2.8912186933
C 0.0000000000 0.3559084132 3.7533686933
H 0.9211300000 -1.0949715868 2.5203286933
H -0.9211300000 -1.0949715868 2.5203286933
H -0.9239400000 0.7858484132 4.1207386933
H 0.9239400000 0.7858484132 4.1207386933
