10
0 1
O 0.0000000000 -0.4388679093 -3.5521540769
C 0.0000000000 0.7660620907 -3.4607840769
H 0.0000000000 1.2689320907 -2.4801440769
H 0.0000000000 1.4106720907 -4.3555540769
C 0.0000000000 -0.6719188620 3.0757765033
C 0.0000000000 0.3473611380 3.9379265033
H 0.9211300000 -1.1035188620 2.7048865033
H -0.9211300000 -1.1035188620 2.7048865033
H -0.9239400000 0.7773011380 4.3052965033
H 0.9239400000 0.7773011380 4.3052965033
