10
0 1
O 0.0000000000 -0.5243406608 -1.7065759768
C 0.0000000000 0.6805893392 -1.6152059768
H 0.0000000000 1.1834593392 -0.6345659768
H 0.0000000000 1.3251993392 -2.5099759768
C 0.0000000000 -0.5864461105 1.2301984032
C 0.0000000000 0.4328338895 2.0923484032
H 0.9211300000 -1.0180461105 0.8593084032
H -0.9211300000 -1.0180461105 0.8593084032
H -0.9239400000 0.8627738895 2.4597184032
H 0.9239400000 0.8627738895 2.4597184032
