10
0 1
O 0.0000000000 -0.4986988353 -2.2602494068
C 0.0000000000 0.7062311647 -2.1688794068
H 0.0000000000 1.2091011647 -1.1882394068
H 0.0000000000 1.3508411647 -3.0636494068
C 0.0000000000 -0.6120879359 1.7838718332
C 0.0000000000 0.4071920641 2.6460218332
H 0.9211300000 -1.0436879359 1.4129818332
H -0.9211300000 -1.0436879359 1.4129818332
H -0.9239400000 0.8371320641 3.0133918332
H 0.9239400000 0.8371320641 3.0133918332
