8
0 1
C 0.0000000000 0.6035640000 -4.1454737600
H 0.0000000000 1.6684758100 -4.1480354800
C 0.0000000000 -0.6035640000 -4.1454737600
H 0.0000000000 -1.6684758100 -4.1480354800
C 0.0000000000 -0.0000000000 3.5420347122
H 0.0000000000 -0.0000000000 2.4751015122
C 0.0000000000 -0.0000000000 4.7495050122
H 0.0000000000 -0.0000000000 5.8139181722
