8
0 1
C 0.0000000000 0.6035640000 -2.8363141060
H 0.0000000000 1.6684758100 -2.8388758260
C 0.0000000000 -0.6035640000 -2.8363141060
H 0.0000000000 -1.6684758100 -2.8388758260
C 0.0000000000 -0.0000000000 2.2328750581
H 0.0000000000 -0.0000000000 1.1659418581
C 0.0000000000 -0.0000000000 3.4403453581
H 0.0000000000 -0.0000000000 4.5047585181
