8
0 1
C 0.0000000000 0.6035640000 -2.1817342789
H 0.0000000000 1.6684758100 -2.1842959989
C 0.0000000000 -0.6035640000 -2.1817342789
H 0.0000000000 -1.6684758100 -2.1842959989
C 0.0000000000 -0.0000000000 1.5782952311
H 0.0000000000 -0.0000000000 0.5113620311
C 0.0000000000 -0.0000000000 2.7857655311
H 0.0000000000 -0.0000000000 3.8501786911
