10
0 1
N 0.0000000000 -0.0128697876 -2.5983086131
H -0.8112300000 -0.4686897876 -2.9977786131
H 0.0000000000 -0.2313497876 -1.6086186131
H 0.8112300000 -0.4686897876 -2.9977786131
C 0.0000000000 -0.5599008412 2.7781773048
C 0.0000000000 0.7192991588 2.3959073048
H 0.9231200000 1.2609591588 2.2315773048
H -0.9231200000 1.2609591588 2.2315773048
H -0.9238900000 -1.1006708412 2.9421673048
H 0.9238900000 -1.1006708412 2.9421673048
