10
0 1
N 0.0000000000 -0.0299618924 -3.1526695824
H -0.8112300000 -0.4857818924 -3.5521395824
H 0.0000000000 -0.2484418924 -2.1629795824
H 0.8112300000 -0.4857818924 -3.5521395824
C 0.0000000000 -0.5428087363 3.3325382740
C 0.0000000000 0.7363912637 2.9502682740
H 0.9231200000 1.2780512637 2.7859382740
H -0.9231200000 1.2780512637 2.7859382740
H -0.9238900000 -1.0835787363 3.4965282740
H 0.9238900000 -1.0835787363 3.4965282740
