10
0 1
N 0.0000000000 0.0042223173 -2.0439476439
H -0.8112300000 -0.4515976827 -2.4434176439
H 0.0000000000 -0.2142576827 -1.0542576439
H 0.8112300000 -0.4515976827 -2.4434176439
C 0.0000000000 -0.5769929461 2.2238163356
C 0.0000000000 0.7022070539 1.8415463356
H 0.9231200000 1.2438670539 1.6772163356
H -0.9231200000 1.2438670539 1.6772163356
H -0.9238900000 -1.1177629461 2.3878063356
H 0.9238900000 -1.1177629461 2.3878063356
