10
0 1
N 0.0000000000 0.0156170539 -1.6743736644
H -0.8112300000 -0.4402029461 -2.0738436644
H 0.0000000000 -0.2028629461 -0.6846836644
H 0.8112300000 -0.4402029461 -2.0738436644
C 0.0000000000 -0.5883876827 1.8542423561
C 0.0000000000 0.6908123173 1.4719723561
H 0.9231200000 1.2324723173 1.3076423561
H -0.9231200000 1.2324723173 1.3076423561
H -0.9238900000 -1.1291576827 2.0182323561
H 0.9238900000 -1.1291576827 2.0182323561
