10
0 1
N 0.0000000000 -0.0242645241 -2.9678825926
H -0.8112300000 -0.4800845241 -3.3673525926
H 0.0000000000 -0.2427445241 -1.9781925926
H 0.8112300000 -0.4800845241 -3.3673525926
C 0.0000000000 -0.5485061046 3.1477512843
C 0.0000000000 0.7306938954 2.7654812842
H 0.9231200000 1.2723538954 2.6011512843
H -0.9231200000 1.2723538954 2.6011512843
H -0.9238900000 -1.0892761046 3.3117412843
H 0.9238900000 -1.0892761046 3.3117412843
