12
0 1
H 0.9244451000 -1.2317222100 -3.8118482619
H -0.9244451000 -1.2317222100 -3.8118482619
H -0.9244451000 1.2317222100 -3.8118482619
H 0.9244451000 1.2317222100 -3.8118482619
C 0.0000000000 0.6672877800 -3.8112203319
C 0.0000000000 -0.6672877800 -3.8112203319
H 0.0000000000 1.2334494800 4.7349734253
H 0.0000000000 1.2254714800 2.8834174953
H 0.0000000000 -1.2254714800 2.8834174953
H 0.0000000000 -1.2334494800 4.7349734253
C 0.0000000000 -0.6671169800 3.8116659253
C 0.0000000000 0.6671169800 3.8116659253
