12
0 1
H 0.9244451000 -1.2317222100 -2.2873240071
H -0.9244451000 -1.2317222100 -2.2873240071
H -0.9244451000 1.2317222100 -2.2873240071
H 0.9244451000 1.2317222100 -2.2873240071
C 0.0000000000 0.6672877800 -2.2866960771
C 0.0000000000 -0.6672877800 -2.2866960771
H 0.0000000000 1.2334494800 3.2104491704
H 0.0000000000 1.2254714800 1.3588932404
H 0.0000000000 -1.2254714800 1.3588932404
H 0.0000000000 -1.2334494800 3.2104491704
C 0.0000000000 -0.6671169800 2.2871416704
C 0.0000000000 0.6671169800 2.2871416704
