12
0 1
H 0.9244451000 -1.2317222100 -2.0967584752
H -0.9244451000 -1.2317222100 -2.0967584752
H -0.9244451000 1.2317222100 -2.0967584752
H 0.9244451000 1.2317222100 -2.0967584752
C 0.0000000000 0.6672877800 -2.0961305452
C 0.0000000000 -0.6672877800 -2.0961305452
H 0.0000000000 1.2334494800 3.0198836385
H 0.0000000000 1.2254714800 1.1683277085
H 0.0000000000 -1.2254714800 1.1683277085
H 0.0000000000 -1.2334494800 3.0198836385
C 0.0000000000 -0.6671169800 2.0965761385
C 0.0000000000 0.6671169800 2.0965761385
