12
0 1
H 0.9244451000 -1.2317222100 -3.2401516664
H -0.9244451000 -1.2317222100 -3.2401516664
H -0.9244451000 1.2317222100 -3.2401516664
H 0.9244451000 1.2317222100 -3.2401516664
C 0.0000000000 0.6672877800 -3.2395237364
C 0.0000000000 -0.6672877800 -3.2395237364
H 0.0000000000 1.2334494800 4.1632768297
H 0.0000000000 1.2254714800 2.3117208997
H 0.0000000000 -1.2254714800 2.3117208997
H 0.0000000000 -1.2334494800 4.1632768297
C 0.0000000000 -0.6671169800 3.2399693297
C 0.0000000000 0.6671169800 3.2399693297
