12
0 1
H 0.9244451000 -1.2317222100 -2.4778895389
H -0.9244451000 -1.2317222100 -2.4778895389
H -0.9244451000 1.2317222100 -2.4778895389
H 0.9244451000 1.2317222100 -2.4778895389
C 0.0000000000 0.6672877800 -2.4772616089
C 0.0000000000 -0.6672877800 -2.4772616089
H 0.0000000000 1.2334494800 3.4010147022
H 0.0000000000 1.2254714800 1.5494587722
H 0.0000000000 -1.2254714800 1.5494587722
H 0.0000000000 -1.2334494800 3.4010147022
C 0.0000000000 -0.6671169800 2.4777072022
C 0.0000000000 0.6671169800 2.4777072022
