12
0 1
H 0.9244451000 -1.2317222100 -3.6212827301
H -0.9244451000 -1.2317222100 -3.6212827301
H -0.9244451000 1.2317222100 -3.6212827301
H 0.9244451000 1.2317222100 -3.6212827301
C 0.0000000000 0.6672877800 -3.6206548001
C 0.0000000000 -0.6672877800 -3.6206548001
H 0.0000000000 1.2334494800 4.5444078934
H 0.0000000000 1.2254714800 2.6928519634
H 0.0000000000 -1.2254714800 2.6928519634
H 0.0000000000 -1.2334494800 4.5444078934
C 0.0000000000 -0.6671169800 3.6211003934
C 0.0000000000 0.6671169800 3.6211003934
