12
0 1
H 0.9244451000 -1.2317222100 -3.4307171982
H -0.9244451000 -1.2317222100 -3.4307171982
H -0.9244451000 1.2317222100 -3.4307171982
H 0.9244451000 1.2317222100 -3.4307171982
C 0.0000000000 0.6672877800 -3.4300892682
C 0.0000000000 -0.6672877800 -3.4300892682
H 0.0000000000 1.2334494800 4.3538423615
H 0.0000000000 1.2254714800 2.5022864315
H 0.0000000000 -1.2254714800 2.5022864315
H 0.0000000000 -1.2334494800 4.3538423615
C 0.0000000000 -0.6671169800 3.4305348615
C 0.0000000000 0.6671169800 3.4305348615
