11
0 1
C 0.0000000000 0.6356975248 -2.6025023872
C 0.0000000000 -0.6897898752 -2.4478209873
H -0.9239996100 -1.2508085552 -2.3818530672
H 0.9239996100 -1.2508085552 -2.3818530672
H 0.9240360700 1.1967296948 -2.6675770873
H -0.9240360700 1.1967296948 -2.6675770873
H 0.0000000000 0.0813228532 1.4378620255
C 0.0000000000 0.0270838332 2.5248127655
H 0.8882545900 0.5209886432 2.9143352055
H -0.8882545900 0.5209886432 2.9143352055
H 0.0000000000 -1.0155792568 2.8372471855
