11
0 1
C 0.0000000000 0.6402050590 -2.1816528109
C 0.0000000000 -0.6852823410 -2.0269714108
H -0.9239996100 -1.2463010210 -1.9610034909
H 0.9239996100 -1.2463010210 -1.9610034909
H 0.9240360700 1.2012372290 -2.2467275109
H -0.9240360700 1.2012372290 -2.2467275109
H 0.0000000000 0.0768153190 1.0170124492
C 0.0000000000 0.0225762990 2.1039631891
H 0.8882545900 0.5164811090 2.4934856292
H -0.8882545900 0.5164811090 2.4934856292
H 0.0000000000 -1.0200867910 2.4163976092
