11
0 1
C 0.0000000000 0.6289362235 -3.2337767518
C 0.0000000000 -0.6965511765 -3.0790953518
H -0.9239996100 -1.2575698565 -3.0131274318
H 0.9239996100 -1.2575698565 -3.0131274318
H 0.9240360700 1.1899683935 -3.2988514518
H -0.9240360700 1.1899683935 -3.2988514518
H 0.0000000000 0.0880841545 2.0691363901
C 0.0000000000 0.0338451345 3.1560871301
H 0.8882545900 0.5277499445 3.5456095701
H -0.8882545900 0.5277499445 3.5456095701
H 0.0000000000 -1.0088179555 3.4685215501
