11
0 1
C 0.0000000000 0.6311899906 -3.0233519636
C 0.0000000000 -0.6942974094 -2.8686705636
H -0.9239996100 -1.2553160894 -2.8027026436
H 0.9239996100 -1.2553160894 -2.8027026436
H 0.9240360700 1.1922221606 -3.0884266636
H -0.9240360700 1.1922221606 -3.0884266636
H 0.0000000000 0.0858303874 1.8587116019
C 0.0000000000 0.0315913674 2.9456623419
H 0.8882545900 0.5254961774 3.3351847819
H -0.8882545900 0.5254961774 3.3351847819
H 0.0000000000 -1.0110717226 3.2580967619
