11
0 1
C 0.0000000000 0.6266824564 -3.4442015400
C 0.0000000000 -0.6988049436 -3.2895201400
H -0.9239996100 -1.2598236236 -3.2235522200
H 0.9239996100 -1.2598236236 -3.2235522200
H 0.9240360700 1.1877146265 -3.5092762400
H -0.9240360700 1.1877146265 -3.5092762400
H 0.0000000000 0.0903379216 2.2795611783
C 0.0000000000 0.0360989016 3.3665119183
H 0.8882545900 0.5300037116 3.7560343583
H -0.8882545900 0.5300037116 3.7560343583
H 0.0000000000 -1.0065641884 3.6789463383
