9
0 1
C 0.0081858071 0.0000000000 2.6840372758
H 0.8532221571 0.0000000000 1.9931717058
H 0.3998591371 0.0000000000 3.6994345458
H -0.5979586629 -0.8899429900 2.5284119358
H -0.5979586629 0.8899429900 2.5284119358
B -0.0094682903 0.0000000000 -2.6818476322
H 0.5806361597 -1.0305180000 -2.7624631222
H 0.5806361597 1.0305180000 -2.7624631222
H -1.1929466003 0.0000000000 -2.5597400422
