9
0 1
C 0.0038653434 0.0000000000 1.4907607418
H 0.8489016934 0.0000000000 0.7998951718
H 0.3955386734 0.0000000000 2.5061580118
H -0.6022791266 -0.8899429900 1.3351354018
H -0.6022791266 0.8899429900 1.3351354018
B -0.0051478266 0.0000000000 -1.4885710982
H 0.5849566234 -1.0305180000 -1.5691865882
H 0.5849566234 1.0305180000 -1.5691865882
H -1.1886261366 0.0000000000 -1.3664635082
