9
0 1
C 0.0071056912 0.0000000000 2.3857181423
H 0.8521420412 0.0000000000 1.6948525723
H 0.3987790212 0.0000000000 3.4011154123
H -0.5990387788 -0.8899429900 2.2300928023
H -0.5990387788 0.8899429900 2.2300928023
B -0.0083881744 0.0000000000 -2.3835284987
H 0.5817162756 -1.0305180000 -2.4641439887
H 0.5817162756 1.0305180000 -2.4641439887
H -1.1918664844 0.0000000000 -2.2614209087
