13
0 1
H -0.8882803647 -0.4855460087 2.8531899567
C -0.0000003647 -0.0879660087 3.3406499567
H -0.0000003647 -0.3778560087 4.3895699566
H -0.0000003647 0.9974739913 3.2624899567
H 0.8882896353 -0.4855460087 2.8531899567
H -0.8804305993 1.1170542055 -2.6049342067
H -0.8810005993 -0.9413857945 -4.0749942067
C -0.0000005993 0.8352842055 -3.1845642067
C -0.0000005993 -0.6593857945 -3.4963542067
H -0.0000005993 1.4286042055 -4.1002642067
H -0.0000005993 -1.2524757945 -2.5805242067
H 0.8804294007 1.1170542055 -2.6049342067
H 0.8810094007 -0.9413857945 -4.0749942067
