13
0 1
H -0.8882803941 -0.4757747319 2.4820356862
C -0.0000003941 -0.0781947319 2.9694956862
H -0.0000003941 -0.3680847319 4.0184156862
H -0.0000003941 1.0072452681 2.8913356862
H 0.8882896059 -0.4757747319 2.4820356862
H -0.8804305700 1.1072829287 -2.2337799363
H -0.8810005700 -0.9511570713 -3.7038399363
C -0.0000005700 0.8255129287 -2.8134099363
C -0.0000005700 -0.6691570713 -3.1251999363
H -0.0000005700 1.4188329287 -3.7291099363
H -0.0000005700 -1.2622470713 -2.2093699363
H 0.8804294300 1.1072829287 -2.2337799363
H 0.8810094300 -0.9511570713 -3.7038399363
