13
0 1
H -0.8882803794 -0.4806603703 2.6676128214
C -0.0000003794 -0.0830803703 3.1550728214
H -0.0000003794 -0.3729703703 4.2039928214
H -0.0000003794 1.0023596297 3.0769128214
H 0.8882896206 -0.4806603703 2.6676128214
H -0.8804305847 1.1121685671 -2.4193570715
H -0.8810005847 -0.9462714329 -3.8894170715
C -0.0000005847 0.8303985671 -2.9989870715
C -0.0000005847 -0.6642714329 -3.3107770715
H -0.0000005847 1.4237185671 -3.9146870715
H -0.0000005847 -1.2573614329 -2.3949470715
H 0.8804294153 1.1121685671 -2.4193570715
H 0.8810094153 -0.9462714329 -3.8894170715
