13
0 1
H -0.8882804087 -0.4708890935 2.2964585510
C -0.0000004087 -0.0733090935 2.7839185510
H -0.0000004087 -0.3631990935 3.8328385510
H -0.0000004087 1.0121309065 2.7057585510
H 0.8882895913 -0.4708890935 2.2964585510
H -0.8804305554 1.1023972903 -2.0482028011
H -0.8810005553 -0.9560427097 -3.5182628011
C -0.0000005553 0.8206272903 -2.6278328011
C -0.0000005553 -0.6740427097 -2.9396228011
H -0.0000005553 1.4139472903 -3.5435328011
H -0.0000005553 -1.2671327097 -2.0237928011
H 0.8804294446 1.1023972903 -2.0482028011
H 0.8810094446 -0.9560427097 -3.5182628011
