13
0 1
C -0.0000000000 -0.0000003019 -3.9445414222
H 0.3930500000 -0.9471203019 -3.5801414222
H 0.6237100000 0.8139496981 -3.5801414222
H -1.0167600000 0.1331696981 -3.5801414222
H -0.0000000000 -0.0000003019 -5.0327814222
C 0.0000000000 -0.0000000335 3.1809704502
C 0.0000000000 -0.0000000335 4.7077604502
H -0.6171100000 -0.8082400335 2.7852604502
H -0.3914000000 0.9385599665 2.7852604502
H 1.0085200000 -0.1303100335 2.7852604502
H -1.0089200000 0.1303099665 5.1021204502
H 0.3916000000 -0.9389000335 5.1021204502
H 0.6173100000 0.8085899665 5.1021204502
