13
0 1
C -0.0000000000 -0.0000002516 -3.2871698211
H 0.3930500000 -0.9471202516 -2.9227698211
H 0.6237100000 0.8139497484 -2.9227698211
H -1.0167600000 0.1331697484 -2.9227698211
H -0.0000000000 -0.0000002516 -4.3754098211
C 0.0000000000 -0.0000000839 2.5235988491
C 0.0000000000 -0.0000000839 4.0503888491
H -0.6171100000 -0.8082400839 2.1278888491
H -0.3914000000 0.9385599161 2.1278888491
H 1.0085200000 -0.1303100839 2.1278888491
H -1.0089200000 0.1303099161 4.4447488491
H 0.3916000000 -0.9389000839 4.4447488491
H 0.6173100000 0.8085899161 4.4447488491
