13
0 1
C -0.0000000000 -0.0000002851 -3.7254175551
H 0.3930500000 -0.9471202851 -3.3610175552
H 0.6237100000 0.8139497149 -3.3610175552
H -1.0167600000 0.1331697149 -3.3610175552
H -0.0000000000 -0.0000002851 -4.8136575551
C 0.0000000000 -0.0000000503 2.9618465832
C 0.0000000000 -0.0000000503 4.4886365832
H -0.6171100000 -0.8082400503 2.5661365832
H -0.3914000000 0.9385599497 2.5661365832
H 1.0085200000 -0.1303100503 2.5661365832
H -1.0089200000 0.1303099497 4.8829965832
H 0.3916000000 -0.9389000503 4.8829965832
H 0.6173100000 0.8085899497 4.8829965832
