10
0 1
C 0.0000000000 0.0000000000 2.5465063521
H 0.5127411500 0.8880937300 2.1822592121
H 0.5127411500 -0.8880937300 2.1822592121
H -1.0254823000 0.0000000000 2.1822592121
H 0.0000000000 0.0000000000 3.6347125021
C 0.0000000000 0.0000000000 -2.5465063521
H 0.0000000000 0.0000000000 -3.6347125021
H -0.5127411500 0.8880937300 -2.1822592121
H -0.5127411500 -0.8880937300 -2.1822592121
H 1.0254823000 0.0000000000 -2.1822592121
