10
0 1
C 0.0000000000 0.0000000000 3.4558710798
H 0.5127411500 0.8880937300 3.0916239398
H 0.5127411500 -0.8880937300 3.0916239398
H -1.0254823000 0.0000000000 3.0916239398
H 0.0000000000 0.0000000000 4.5440772298
C 0.0000000000 0.0000000000 -3.4558710798
H 0.0000000000 0.0000000000 -4.5440772298
H -0.5127411500 0.8880937300 -3.0916239398
H -0.5127411500 -0.8880937300 -3.0916239398
H 1.0254823000 0.0000000000 -3.0916239398
