10
0 1
C 0.0000000000 0.0000000000 2.7283792977
H 0.5127411500 0.8880937300 2.3641321577
H 0.5127411500 -0.8880937300 2.3641321577
H -1.0254823000 0.0000000000 2.3641321577
H 0.0000000000 0.0000000000 3.8165854477
C 0.0000000000 0.0000000000 -2.7283792977
H 0.0000000000 0.0000000000 -3.8165854477
H -0.5127411500 0.8880937300 -2.3641321577
H -0.5127411500 -0.8880937300 -2.3641321577
H 1.0254823000 0.0000000000 -2.3641321577
