10
0 1
C 0.0000000000 0.0000000000 2.3646334066
H 0.5127411500 0.8880937300 2.0003862666
H 0.5127411500 -0.8880937300 2.0003862666
H -1.0254823000 0.0000000000 2.0003862666
H 0.0000000000 0.0000000000 3.4528395566
C 0.0000000000 0.0000000000 -2.3646334066
H 0.0000000000 0.0000000000 -3.4528395566
H -0.5127411500 0.8880937300 -2.0003862666
H -0.5127411500 -0.8880937300 -2.0003862666
H 1.0254823000 0.0000000000 -2.0003862666
