7
0 1
C 0.0000000000 0.6671807300 -2.7289999955
C 0.0000000000 -0.6671807300 -2.7289999955
H -0.9240076800 1.2320233300 -2.7285041355
H 0.9240076800 1.2320233300 -2.7285041355
H -0.9240076800 -1.2320233300 -2.7285041355
H 0.9240076800 -1.2320233300 -2.7285041355
Ar 0.0000000000 0.0000000000 2.7289286838
