7
0 1
C 0.0000000000 0.6671807300 -3.7036173826
C 0.0000000000 -0.6671807300 -3.7036173826
H -0.9240076800 1.2320233300 -3.7031215226
H 0.9240076800 1.2320233300 -3.7031215226
H -0.9240076800 -1.2320233300 -3.7031215226
H 0.9240076800 -1.2320233300 -3.7031215226
Ar 0.0000000000 0.0000000000 3.7035460709
