7
0 1
C 0.0000000000 0.6671807300 -2.3391530407
C 0.0000000000 -0.6671807300 -2.3391530407
H -0.9240076800 1.2320233300 -2.3386571807
H 0.9240076800 1.2320233300 -2.3386571807
H -0.9240076800 -1.2320233300 -2.3386571807
H 0.9240076800 -1.2320233300 -2.3386571807
Ar 0.0000000000 0.0000000000 2.3390817290
