7
0 1
C 0.0000000000 0.6671807300 -3.3137704278
C 0.0000000000 -0.6671807300 -3.3137704278
H -0.9240076800 1.2320233300 -3.3132745678
H 0.9240076800 1.2320233300 -3.3132745678
H -0.9240076800 -1.2320233300 -3.3132745678
H 0.9240076800 -1.2320233300 -3.3132745678
Ar 0.0000000000 0.0000000000 3.3136991160
