33
0 1
N 0.1844760000 3.1518050000 0.4360910000
C -1.0829990000 2.8835870000 -0.0396820000
C -1.1496580000 1.5904490000 -0.5090720000
C 0.1605770000 1.0305680000 -0.3189650000
C 0.7147940000 -0.2245400000 -0.6109590000
C 2.0440470000 -0.4627700000 -0.2856890000
C 2.8383810000 0.5412000000 0.3137410000
C 2.3089550000 1.7973040000 0.5927400000
C 0.9706210000 2.0322720000 0.2741350000
H 0.4940700000 4.0372040000 0.7918960000
H -1.8479950000 3.6432730000 -0.0133820000
H 0.1390100000 -1.0054630000 -1.0895910000
H 3.8710470000 0.3492360000 0.5606530000
H 2.9289090000 2.5604940000 1.0453980000
O 2.5063890000 -1.7225100000 -0.5781840000
C 3.8695970000 -1.9900570000 -0.2966810000
H 4.0838670000 -1.9004230000 0.7706830000
H 4.5307970000 -1.3244450000 -0.8558010000
H 4.0421390000 -3.0148550000 -0.6115680000
C -2.3522400000 0.8743120000 -1.0429590000
C -3.1405910000 0.1483990000 0.0599250000
N -2.3330110000 -0.7765990000 0.8371930000
C -1.9951230000 -2.0042300000 0.3445320000
C -1.0092500000 -2.7911800000 1.1834830000
H -2.0478370000 0.1401490000 -1.7901190000
H -3.0260590000 1.5783580000 -1.5371950000
H -3.9557460000 -0.4202290000 -0.3847480000
H -3.5623200000 0.8787920000 0.7512490000
H -1.7662400000 -0.4008930000 1.5771130000
O -2.4593760000 -2.4412400000 -0.7008410000
H -0.9049000000 -2.3956580000 2.1924480000
H -0.0351050000 -2.7687960000 0.6949680000
H -1.3426730000 -3.8250560000 1.2299240000
