33
0 1
N -0.1032370000 2.5593610000 -0.3568760000
C 0.8929040000 1.7845560000 -0.9122990000
C 0.4783660000 0.4730060000 -0.9926380000
C -0.8527760000 0.4398240000 -0.4540740000
C -1.7923370000 -0.6007370000 -0.2763250000
C -3.0250720000 -0.2850440000 0.2760160000
C -3.3389820000 1.0436170000 0.6553750000
C -2.4334280000 2.0733900000 0.4866580000
C -1.1863790000 1.7596080000 -0.0714060000
H -0.0629190000 3.5540570000 -0.2315650000
H 1.8284600000 2.2239850000 -1.2189840000
H -1.5478170000 -1.6081080000 -0.5786590000
H -4.3157760000 1.2283770000 1.0801930000
H -2.6890820000 3.0842900000 0.7770630000
O -4.0312820000 -1.1861220000 0.5042360000
C -3.7685520000 -2.5279310000 0.1314370000
H -2.9202300000 -2.9354450000 0.6863080000
H -3.5725990000 -2.6112460000 -0.9399370000
H -4.6644460000 -3.0889650000 0.3793630000
C 1.2885330000 -0.6891110000 -1.4726940000
C 1.7236420000 -1.6058500000 -0.3172360000
N 2.4636070000 -0.8950740000 0.7109250000
C 3.7662340000 -0.5393110000 0.5162620000
C 4.3596060000 0.3625770000 1.5802630000
H 2.1842280000 -0.3350880000 -1.9841400000
H 0.7173250000 -1.2847650000 -2.1905780000
H 2.3633930000 -2.3998800000 -0.6979980000
H 0.8530960000 -2.0584230000 0.1572110000
H 1.9369020000 -0.3856810000 1.3984640000
O 4.4206330000 -0.9304060000 -0.4410550000
H 5.3002360000 -0.0687030000 1.9150350000
H 3.7023900000 0.5054020000 2.4360180000
H 4.5788890000 1.3308550000 1.1323720000
