33
0 1
N 0.8591920000 2.5818480000 0.0643600000
C 1.7475860000 1.9004050000 -0.7356750000
C 1.1683370000 0.7376590000 -1.1934160000
C -0.1527330000 0.7019790000 -0.6376840000
C -1.2177070000 -0.2215290000 -0.7420890000
C -2.3867360000 0.0394960000 -0.0428820000
C -2.5172910000 1.2014050000 0.7580750000
C -1.4922150000 2.1225490000 0.8600870000
C -0.3089800000 1.8637590000 0.1540160000
H 1.0617180000 3.4315230000 0.5582550000
H 2.7421480000 2.2821380000 -0.8987940000
H -1.1153830000 -1.0984690000 -1.3645570000
H -3.4508030000 1.3494200000 1.2828940000
H -1.6076790000 3.0088480000 1.4706050000
O -3.4970870000 -0.7654380000 -0.0492590000
C -3.4210570000 -1.9323480000 -0.8473090000
H -3.2566010000 -1.6857690000 -1.8988200000
H -2.6242320000 -2.5976100000 -0.5045810000
H -4.3780630000 -2.4338770000 -0.7393580000
C 1.8431170000 -0.3603500000 -1.9555260000
C 2.5982990000 -1.3162460000 -1.0117520000
N 1.7676090000 -1.7949610000 0.0795060000
C 1.7600810000 -1.1624610000 1.2982220000
C 0.6005160000 -1.5370600000 2.1974460000
H 1.1009460000 -0.9234310000 -2.5281030000
H 2.5544740000 0.0441260000 -2.6794400000
H 2.9904140000 -2.1681280000 -1.5705120000
H 3.4328660000 -0.7945460000 -0.5487300000
H 0.9378600000 -2.3112160000 -0.1581300000
O 2.6171340000 -0.3603840000 1.6370590000
H -0.2019610000 -0.8143700000 2.0410210000
H 0.2143630000 -2.5337370000 1.9869440000
H 0.9246630000 -1.4800910000 3.2327620000
