33
0 1
N 0.6333910000 2.9792640000 0.4035920000
C 1.7226340000 2.4119150000 -0.2175870000
C 1.3782170000 1.1831020000 -0.7412850000
C -0.0120560000 0.9880040000 -0.4302820000
C -0.9234810000 -0.0608920000 -0.6840570000
C -2.2214380000 0.0641580000 -0.2120670000
C -2.6354040000 1.2226810000 0.4921490000
C -1.7611650000 2.2612220000 0.7457950000
C -0.4443540000 2.1303220000 0.2828590000
H 0.6161430000 3.8872710000 0.8302750000
H 2.6687360000 2.9282400000 -0.2502760000
H -0.6017130000 -0.9429330000 -1.2139630000
H -3.6602400000 1.2643960000 0.8339670000
H -2.0881910000 3.1382290000 1.2894230000
O -3.1961960000 -0.8804010000 -0.3642920000
C -2.7899860000 -2.1109840000 -0.9520790000
H -2.4847070000 -1.9664610000 -1.9915960000
H -1.9754910000 -2.5665260000 -0.3872990000
H -3.6647780000 -2.7537020000 -0.9244460000
C 2.3162700000 0.2541910000 -1.4493670000
C 2.8453360000 -0.8919300000 -0.5691780000
N 1.8481430000 -1.8966380000 -0.2532360000
C 1.0871110000 -2.0270160000 0.8761090000
C 1.4184840000 -1.1205160000 2.0413970000
H 1.8345660000 -0.1773600000 -2.3315100000
H 3.1776820000 0.8232470000 -1.8096990000
H 3.6713780000 -1.3864980000 -1.0856450000
H 3.2436680000 -0.4859480000 0.3584160000
H 1.5665750000 -2.5215200000 -0.9928810000
O 0.1915800000 -2.8612430000 0.9315420000
H 2.4414010000 -1.2836620000 2.3825910000
H 1.3110110000 -0.0731710000 1.7615380000
H 0.7291290000 -1.3543710000 2.8461690000
