33
0 1
N -0.0599900000 2.4763120000 -0.2499600000
C 0.9818480000 1.7765950000 -0.8235580000
C 0.6229130000 0.4622840000 -1.0157970000
C -0.7263050000 0.3412970000 -0.5315850000
C -1.6319250000 -0.7284350000 -0.4610590000
C -2.8989730000 -0.5064690000 0.0656790000
C -3.2796990000 0.7739960000 0.5259310000
C -2.3957310000 1.8464320000 0.4622090000
C -1.1242660000 1.6214060000 -0.0655720000
H -0.0618870000 3.4612160000 -0.0594190000
H 1.9116180000 2.2686960000 -1.0606040000
H -1.3792230000 -1.7196160000 -0.8136510000
H -4.2650930000 0.9400370000 0.9326850000
H -2.7001080000 2.8236430000 0.8145390000
O -3.7262070000 -1.6007870000 0.1005230000
C -5.0321240000 -1.4042150000 0.6146750000
H -5.0078650000 -1.0805880000 1.6576280000
H -5.5901080000 -0.6756080000 0.0224810000
H -5.5246770000 -2.3699010000 0.5512250000
C 1.4938900000 -0.6299530000 -1.5494960000
C 1.9024550000 -1.6311200000 -0.4558290000
N 2.5460770000 -0.9901920000 0.6780620000
C 3.8284890000 -0.5348990000 0.5919090000
C 4.3102160000 0.2797040000 1.7761270000
H 0.9785650000 -1.1783000000 -2.3431050000
H 2.4006360000 -0.2055870000 -1.9814320000
H 1.0281510000 -2.1615290000 -0.0799140000
H 2.5985800000 -2.3596150000 -0.8677330000
H 1.9569450000 -0.5997140000 1.3920410000
O 4.5507880000 -0.7754480000 -0.3665060000
H 4.4706410000 1.3063930000 1.4496880000
H 3.6119340000 0.2757760000 2.6110470000
H 5.2679130000 -0.1179890000 2.1038670000
