33
0 1
N -0.8469940000 2.4726180000 0.7244810000
C -1.8551670000 1.9941250000 -0.0823670000
C -1.3694140000 1.0022240000 -0.9032940000
C 0.0204720000 0.8597950000 -0.5790230000
C 1.0496300000 0.0280650000 -1.0622230000
C 2.3131880000 0.1441140000 -0.5101630000
C 2.5861770000 1.0727200000 0.5197950000
C 1.5923220000 1.9059980000 1.0094200000
C 0.3127460000 1.7887910000 0.4525080000
H -0.9599050000 3.1703840000 1.4367610000
H -2.8571890000 2.3808630000 0.0071880000
H 0.8880680000 -0.6805320000 -1.8646640000
H 3.5950000000 1.1423450000 0.9037670000
H 1.8073290000 2.6251980000 1.7893200000
O 3.3402360000 -0.6357640000 -1.0154310000
C 3.7261470000 -1.6798150000 -0.1271760000
H 2.8916760000 -2.3621960000 0.0548510000
H 4.0736820000 -1.2834140000 0.8292080000
H 4.5374640000 -2.2181980000 -0.6103140000
C -2.1637380000 0.1227910000 -1.8182790000
C -2.7789580000 -1.0689810000 -1.0601050000
N -1.7977030000 -1.7986210000 -0.2762410000
C -1.5931870000 -1.5168410000 1.0505480000
C -0.3245800000 -2.1032450000 1.6347780000
H -1.5220940000 -0.2476880000 -2.6220770000
H -2.9715670000 0.6827730000 -2.2951590000
H -3.2638830000 -1.7519630000 -1.7599390000
H -3.5250280000 -0.7120650000 -0.3536790000
H -1.0327680000 -2.2293470000 -0.7668710000
O -2.3668300000 -0.8453180000 1.7166400000
H 0.4560490000 -1.3424390000 1.5861070000
H 0.0156600000 -2.9861190000 1.0948060000
H -0.5006870000 -2.3553630000 2.6768390000
