33
0 1
N -0.1092470000 2.5394450000 0.0268830000
C 0.9423640000 1.9051220000 -0.6022270000
C 0.5722270000 0.6324140000 -0.9736190000
C -0.7910400000 0.4726170000 -0.5475090000
C -1.7180020000 -0.5838530000 -0.6414920000
C -2.9914730000 -0.3949290000 -0.1331430000
C -3.3718970000 0.8231370000 0.4728160000
C -2.4773170000 1.8763810000 0.5808840000
C -1.1879620000 1.6867910000 0.0689360000
H -0.1058020000 3.4913720000 0.3442330000
H 1.8839610000 2.4101070000 -0.7468280000
H -1.4714270000 -1.5237730000 -1.1178750000
H -4.3866850000 0.9280040000 0.8323220000
H -2.7757850000 2.8128660000 1.0343530000
O -3.9270410000 -1.4065040000 -0.2633610000
C -4.1387890000 -2.1141950000 0.9548380000
H -4.4993800000 -1.4494480000 1.7429850000
H -3.2155970000 -2.5939110000 1.2895120000
H -4.8899230000 -2.8725270000 0.7499520000
C 1.4441650000 -0.3963080000 -1.6205460000
C 1.8217290000 -1.5272970000 -0.6495500000
N 2.4634820000 -1.0371060000 0.5580680000
C 3.7608740000 -0.6161140000 0.5410770000
C 4.2478640000 0.0421420000 1.8167420000
H 2.3632990000 0.0667370000 -1.9806780000
H 0.9396890000 -0.8371880000 -2.4847590000
H 2.5103110000 -2.2148500000 -1.1372800000
H 0.9333140000 -2.0818440000 -0.3485090000
H 1.8741670000 -0.7094190000 1.3027620000
O 4.4911700000 -0.7702530000 -0.4287060000
H 5.1761680000 -0.4361000000 2.1208030000
H 3.5279620000 -0.0159380000 2.6310240000
H 4.4665840000 1.0881630000 1.6066260000
