33
0 1
N -1.7447740000 -2.9009080000 -0.0066210000
C -0.3829850000 -3.0019010000 -0.2050370000
C 0.1729780000 -1.7481430000 -0.3093230000
C -0.9111140000 -0.8129350000 -0.1681290000
C -0.9722870000 0.5886700000 -0.1926030000
C -2.2097290000 1.2025530000 -0.0344800000
C -3.3849050000 0.4385950000 0.1483950000
C -3.3376950000 -0.9517410000 0.1744910000
C -2.0966870000 -1.5681320000 0.0152420000
H -2.3786190000 -3.6743640000 0.0693700000
H 0.0916020000 -3.9683290000 -0.2649950000
H -0.0876620000 1.1984230000 -0.3295750000
H -4.3405640000 0.9243400000 0.2705510000
H -4.2453200000 -1.5250200000 0.3136110000
O -2.2001140000 2.5742150000 -0.0688270000
C -3.4444100000 3.2315290000 0.0861270000
H -3.8990760000 3.0085920000 1.0542750000
H -4.1425100000 2.9635840000 -0.7104540000
H -3.2279720000 4.2942330000 0.0292290000
C 1.6137440000 -1.3936900000 -0.4942330000
C 2.2135000000 -0.8051850000 0.7912810000
N 3.5414800000 -0.2480280000 0.5911970000
C 3.7056200000 0.9788930000 0.0215710000
C 5.1401380000 1.4090630000 -0.2098710000
H 1.7141390000 -0.6467790000 -1.2842070000
H 2.1875210000 -2.2730830000 -0.7961690000
H 2.2731190000 -1.5717950000 1.5638680000
H 1.5711200000 -0.0067830000 1.1576600000
H 4.3491680000 -0.8242550000 0.7407760000
O 2.7579420000 1.6919410000 -0.2817390000
H 5.3123650000 1.4837180000 -1.2823790000
H 5.8693260000 0.7259040000 0.2221730000
H 5.2767880000 2.3994640000 0.2181680000
