33
0 1
N 0.4511400000 2.2055370000 -0.6481470000
C 1.3751110000 1.3409290000 -1.1932590000
C 0.8431300000 0.0740790000 -1.2776140000
C -0.4879360000 0.1599690000 -0.7431760000
C -1.5075680000 -0.7832140000 -0.5450940000
C -2.7079930000 -0.3687850000 0.0197120000
C -2.9078850000 0.9800830000 0.3913240000
C -1.9074850000 1.9280940000 0.2033020000
C -0.7014040000 1.5090770000 -0.3590860000
H 0.6076880000 3.1807710000 -0.4709010000
H 2.3573200000 1.6916170000 -1.4660910000
H -1.3909850000 -1.8228260000 -0.8222330000
H -3.8427730000 1.2955320000 0.8277430000
H -2.0721250000 2.9578750000 0.4930110000
O -3.6559010000 -1.3474360000 0.1817120000
C -4.8925760000 -0.9572460000 0.7539420000
H -5.4010370000 -0.2118020000 0.1386270000
H -4.7600260000 -0.5637540000 1.7641380000
H -5.4970110000 -1.8583320000 0.7971710000
C 1.5545320000 -1.1745380000 -1.6880700000
C 2.2058200000 -1.8805990000 -0.4830370000
N 3.2596740000 -1.0888960000 0.1239990000
C 3.1190850000 -0.1589170000 1.1255020000
C 1.8967240000 -0.2793400000 2.0104700000
H 2.3323960000 -0.9468160000 -2.4210900000
H 0.8587720000 -1.8675010000 -2.1683530000
H 2.6304290000 -2.8348370000 -0.8012850000
H 1.4509000000 -2.0977670000 0.2701000000
H 4.0719180000 -0.9076060000 -0.4475850000
O 3.9796760000 0.6899290000 1.3171190000
H 1.7969970000 -1.2894730000 2.4077880000
H 0.9885620000 -0.0411790000 1.4573430000
H 2.0137430000 0.4221280000 2.8305010000
