33
0 1
N 1.1533930000 2.7936830000 0.0861600000
C -0.1379850000 2.4291470000 0.4056820000
C -0.2403920000 1.0576210000 0.4564450000
C 1.0658010000 0.5469820000 0.1469100000
C 1.5979080000 -0.7528100000 0.0492260000
C 2.9350970000 -0.8986010000 -0.2759420000
C 3.7651120000 0.2209640000 -0.5064940000
C 3.2671730000 1.5108780000 -0.4077920000
C 1.9146740000 1.6602020000 -0.0776340000
H 1.4832630000 3.7369100000 -0.0043850000
H -0.8953740000 3.1770390000 0.5765460000
H 0.9920190000 -1.6348670000 0.2121860000
H 4.7976950000 0.0525910000 -0.7812840000
H 3.9045140000 2.3664560000 -0.5908150000
O 3.4602950000 -2.1720430000 -0.4192240000
C 4.2540840000 -2.5616530000 0.6980980000
H 5.1004690000 -1.8858440000 0.8389240000
H 3.6555020000 -2.5757700000 1.6122410000
H 4.6221360000 -3.5624200000 0.4870770000
C -1.4773470000 0.2571670000 0.7153560000
C -2.0733670000 -0.2886160000 -0.5902990000
N -3.2677180000 -1.0889330000 -0.3745640000
C -4.4763990000 -0.5064280000 -0.1378050000
C -5.6229500000 -1.4608000000 0.1298800000
H -1.2526850000 -0.5800340000 1.3818770000
H -2.2331280000 0.8723540000 1.2041320000
H -2.3404950000 0.5472570000 -1.2348970000
H -1.3407550000 -0.9019260000 -1.1147210000
H -3.1856720000 -2.0853560000 -0.2905870000
O -4.6312530000 0.7075440000 -0.1451250000
H -6.4324500000 -1.2296030000 -0.5589820000
H -5.3471120000 -2.5082360000 0.0215340000
H -5.9884370000 -1.2901270000 1.1409950000
