33
0 1
N 0.2926600000 2.3014290000 -0.3084340000
C -0.7724420000 1.5135910000 -0.6923050000
C -0.3850620000 0.1920660000 -0.7517970000
C 1.0027770000 0.1656780000 -0.3773760000
C 1.9411860000 -0.8691930000 -0.2543460000
C 3.2369440000 -0.5577530000 0.1400880000
C 3.6119560000 0.7774250000 0.4124520000
C 2.6942370000 1.8157030000 0.2919000000
C 1.3943930000 1.5004670000 -0.1043210000
H 0.2562970000 3.2943260000 -0.1698140000
H -1.7321480000 1.9599100000 -0.8963810000
H 1.6878700000 -1.9010030000 -0.4581300000
H 4.6197410000 1.0119870000 0.7179550000
H 2.9940930000 2.8343510000 0.5015200000
O 4.0978480000 -1.6209310000 0.2402280000
C 5.4297890000 -1.3369160000 0.6323630000
H 5.9245990000 -0.6739990000 -0.0808240000
H 5.4677480000 -0.8903670000 1.6284260000
H 5.9444860000 -2.2929040000 0.6490660000
C -1.2095030000 -0.9934020000 -1.1659560000
C -2.7114430000 -0.7343830000 -1.1442100000
N -3.1458370000 -0.4153550000 0.2060030000
C -4.4642090000 -0.3990050000 0.5446840000
C -4.7656920000 0.0056650000 1.9743380000
H -0.9277640000 -1.3061970000 -2.1749700000
H -0.9870270000 -1.8367130000 -0.5063110000
H -2.9712240000 0.0750630000 -1.8326460000
H -3.2562460000 -1.6164990000 -1.4756130000
H -2.4643760000 -0.0503990000 0.8481090000
O -5.3481090000 -0.7033230000 -0.2448130000
H -5.2989320000 -0.8094470000 2.4595650000
H -3.8741040000 0.2433060000 2.5519400000
H -5.4262700000 0.8704440000 1.9587240000
