33
0 1
N -0.2142050000 2.4770940000 0.2290460000
C 0.8728380000 1.7859510000 0.7196960000
C 0.5495810000 0.4589040000 0.8920610000
C -0.8192200000 0.3202530000 0.4742790000
C -1.7015260000 -0.7689160000 0.4151300000
C -2.9973610000 -0.5618760000 -0.0424900000
C -3.4287860000 0.7226930000 -0.4435000000
C -2.5679090000 1.8138800000 -0.3895610000
C -1.2670250000 1.6036550000 0.0684360000
H -0.2313420000 3.4592470000 0.0248780000
H 1.8063080000 2.2915990000 0.9085540000
H -1.4069180000 -1.7649650000 0.7185970000
H -4.4361250000 0.8767230000 -0.7977620000
H -2.9107750000 2.7931590000 -0.6977280000
O -3.8003410000 -1.6740810000 -0.0718710000
C -5.1292260000 -1.4966010000 -0.5318880000
H -5.1515410000 -1.1419040000 -1.5646370000
H -5.6829200000 -0.8007630000 0.1022210000
H -5.5946060000 -2.4763260000 -0.4797730000
C 1.4628430000 -0.6382140000 1.3392470000
C 1.9910950000 -1.4579570000 0.1482690000
N 2.7348330000 -0.6524630000 -0.8036740000
C 4.0539720000 -0.2961160000 -0.6949060000
C 4.9126100000 -1.1398610000 0.2275060000
H 0.9387220000 -1.3104190000 2.0245140000
H 2.3097210000 -0.2165590000 1.8851830000
H 1.1515010000 -1.9110570000 -0.3804050000
H 2.6258000000 -2.2699040000 0.4988580000
H 2.1970710000 0.0088250000 -1.3444050000
O 4.5203220000 0.6298700000 -1.3439210000
H 4.8793630000 -2.1904690000 -0.0599170000
H 4.5776230000 -1.0636890000 1.2620000000
H 5.9325580000 -0.7769880000 0.1548790000
