33
0 1
N -1.1633920000 3.0391860000 -0.3127400000
C 0.1562530000 3.0846420000 0.0786120000
C 0.5877520000 1.8274980000 0.4405190000
C -0.5414100000 0.9500920000 0.2690390000
C -0.7408080000 -0.4237110000 0.4806710000
C -1.9956040000 -0.9675710000 0.2315030000
C -3.0577250000 -0.1627390000 -0.2401430000
C -2.8772970000 1.1981580000 -0.4597020000
C -1.6203690000 1.7444300000 -0.1992230000
H -1.7139250000 3.8308760000 -0.5892950000
H 0.6954980000 4.0185630000 0.0812410000
H 0.0491640000 -1.0790660000 0.8207780000
H -4.0269980000 -0.5943400000 -0.4358380000
H -3.6972850000 1.8060810000 -0.8198320000
O -2.1176330000 -2.3091030000 0.4782190000
C -3.3554010000 -2.9160010000 0.1520410000
H -4.1733940000 -2.5090550000 0.7511300000
H -3.5901920000 -2.7998760000 -0.9083450000
H -3.2366940000 -3.9711110000 0.3792320000
C 1.9713580000 1.4688200000 0.8905710000
C 2.8526050000 0.9394330000 -0.2531600000
N 2.3597070000 -0.2893680000 -0.8458000000
C 2.6516930000 -1.5630970000 -0.4345300000
C 3.8318630000 -1.7253600000 0.5047440000
H 2.4570500000 2.3514050000 1.3155440000
H 1.9239000000 0.7161340000 1.6817330000
H 2.9078920000 1.6972700000 -1.0366180000
H 3.8674640000 0.7728450000 0.1038390000
H 1.5062990000 -0.2323750000 -1.3819050000
O 2.0071190000 -2.5236640000 -0.8312220000
H 4.7467580000 -1.3374650000 0.0570570000
H 3.6671510000 -1.1987690000 1.4449660000
H 3.9497540000 -2.7852720000 0.7044550000
