33
0 1
N -1.6387720000 -2.9284780000 0.0511710000
C -0.2814470000 -2.9694730000 -0.1870150000
C 0.2111970000 -1.6937610000 -0.3397510000
C -0.9122430000 -0.8088420000 -0.1866180000
C -1.0535550000 0.5858680000 -0.2421010000
C -2.3127390000 1.1441800000 -0.0572900000
C -3.4404100000 0.3272580000 0.1831370000
C -3.3191080000 -1.0572210000 0.2392200000
C -2.0539600000 -1.6150800000 0.0535160000
H -2.2307570000 -3.7293340000 0.1715780000
H 0.2381470000 -3.9129350000 -0.2376700000
H -0.2147700000 1.2432540000 -0.4285330000
H -4.4152890000 0.7668180000 0.3259310000
H -4.1906280000 -1.6726780000 0.4214620000
O -2.3691650000 2.5130990000 -0.1254810000
C -3.6403210000 3.1151000000 0.0509680000
H -4.0531700000 2.8967540000 1.0382690000
H -4.3463910000 2.7914960000 -0.7168610000
H -3.4773330000 4.1847720000 -0.0403100000
C 1.6353270000 -1.2956270000 -0.5667060000
C 2.2589180000 -0.6781600000 0.6960460000
N 3.6350910000 -0.2534170000 0.5191600000
C 4.0721570000 0.9577240000 0.0524660000
C 3.0316870000 2.0538820000 -0.0660450000
H 1.7028240000 -0.5728780000 -1.3841650000
H 2.2255690000 -2.1651980000 -0.8646280000
H 2.2267240000 -1.4114850000 1.5031830000
H 1.6621880000 0.1702460000 1.0251110000
H 4.3523740000 -0.9618380000 0.5176190000
O 5.2479310000 1.1449570000 -0.2256970000
H 2.5711000000 2.2642150000 0.8990450000
H 2.2412080000 1.7762440000 -0.7630650000
H 3.5308260000 2.9462770000 -0.4288220000
