33
0 1
N 0.3878580000 2.8023050000 0.4908280000
C 1.4314140000 2.4235520000 -0.3255300000
C 1.1624980000 1.1979010000 -0.8950430000
C -0.1328310000 0.8053390000 -0.4114620000
C -0.9551480000 -0.3166530000 -0.6333170000
C -2.1836650000 -0.3718680000 -0.0004250000
C -2.6202860000 0.6603280000 0.8604770000
C -1.8314150000 1.7741310000 1.0958650000
C -0.5908650000 1.8350860000 0.4487820000
H 0.3236350000 3.6750320000 0.9821430000
H 2.2947890000 3.0589320000 -0.4430560000
H -0.6470790000 -1.1393440000 -1.2636110000
H -3.5778610000 0.5528700000 1.3519430000
H -2.1628240000 2.5596890000 1.7627300000
O -2.9882540000 -1.4816670000 -0.1809090000
C -4.0530390000 -1.2370940000 -1.0946660000
H -4.7005980000 -0.4300430000 -0.7438390000
H -3.6644660000 -0.9758980000 -2.0822750000
H -4.6264550000 -2.1580890000 -1.1601500000
C 2.0892420000 0.4186440000 -1.7752700000
C 2.9430050000 -0.6002740000 -0.9995150000
N 2.1767890000 -1.6747860000 -0.4024430000
C 1.7082060000 -1.7822930000 0.8825300000
C 2.1671900000 -0.7340820000 1.8752220000
H 1.5232430000 -0.1099870000 -2.5467980000
H 2.7669800000 1.1026180000 -2.2933930000
H 3.6795830000 -1.0396850000 -1.6764280000
H 3.4958790000 -0.0854890000 -0.2159690000
H 1.8145770000 -2.3903840000 -1.0132970000
O 0.9749820000 -2.7055050000 1.2039020000
H 3.2534930000 -0.7389380000 1.9730300000
H 1.8550010000 0.2627290000 1.5663720000
H 1.7199130000 -0.9755620000 2.8340610000
