33
0 1
N -1.1118990000 2.8050870000 0.1293410000
C 0.1645800000 2.4280250000 0.4887710000
C 0.2546270000 1.0549030000 0.5322110000
C -1.0454280000 0.5567230000 0.1779290000
C -1.5854160000 -0.7380700000 0.0570890000
C -2.9131600000 -0.8697070000 -0.3099440000
C -3.7253590000 0.2591420000 -0.5599480000
C -3.2196920000 1.5436890000 -0.4387740000
C -1.8767250000 1.6784330000 -0.0657600000
H -1.4340010000 3.7515120000 0.0435040000
H 0.9179860000 3.1706850000 0.6969270000
H -0.9938220000 -1.6269740000 0.2341030000
H -4.7503010000 0.1017050000 -0.8676490000
H -3.8432440000 2.4060700000 -0.6363280000
O -3.4438420000 -2.1363540000 -0.4776810000
C -4.2833740000 -2.5247550000 0.6068140000
H -5.1285770000 -1.8422220000 0.7187860000
H -3.7198650000 -2.5492630000 1.5426220000
H -4.6513490000 -3.5209330000 0.3758450000
C 1.4730570000 0.2396250000 0.8311880000
C 2.0701250000 -0.3766560000 -0.4449050000
N 3.2279510000 -1.2156970000 -0.1979170000
C 4.5342030000 -0.8140760000 -0.1156180000
C 4.8371710000 0.6012940000 -0.5682540000
H 1.2280590000 -0.5669950000 1.5275330000
H 2.2299950000 0.8571040000 1.3192410000
H 2.3429730000 0.4170460000 -1.1379240000
H 1.3111870000 -0.9782590000 -0.9465090000
H 3.0726740000 -2.1447160000 0.1614830000
O 5.4112090000 -1.5727590000 0.2712510000
H 5.8967090000 0.7776910000 -0.4155220000
H 4.2627080000 1.3359420000 -0.0047610000
H 4.5999250000 0.7273670000 -1.6246830000
