33
0 1
N 1.1633690000 2.8162830000 0.1863240000
C -0.1388230000 2.5149570000 -0.1516340000
C -0.2467120000 1.1781360000 -0.4625430000
C 1.0693240000 0.6231040000 -0.3073310000
C 1.6020320000 -0.6682990000 -0.4844030000
C 2.9543660000 -0.8622520000 -0.2638870000
C 3.7974870000 0.1999550000 0.1328410000
C 3.2963520000 1.4786900000 0.3173490000
C 1.9279320000 1.6762660000 0.0955260000
H 1.5039570000 3.7302000000 0.4221610000
H -0.8968190000 3.2817230000 -0.1531990000
H 0.9923280000 -1.5033260000 -0.8045060000
H 4.8518910000 0.0011560000 0.2694490000
H 3.9472220000 2.2924230000 0.6101800000
O 3.4993940000 -2.1150460000 -0.4817720000
C 3.7826180000 -2.8069960000 0.7314850000
H 2.8683000000 -2.9668270000 1.3082060000
H 4.4980720000 -2.2560220000 1.3457290000
H 4.2099890000 -3.7662730000 0.4517370000
C -1.4920500000 0.4361020000 -0.8329600000
C -2.0029400000 -0.4306530000 0.3297150000
N -3.1854050000 -1.2053020000 0.0021880000
C -4.4894750000 -0.8000410000 0.1031780000
C -4.7415220000 0.4880110000 0.8629730000
H -1.3059480000 -0.2095370000 -1.6955140000
H -2.2752560000 1.1374190000 -1.1282270000
H -2.2157670000 0.2029390000 1.1887390000
H -1.2165870000 -1.1197110000 0.6404540000
H -3.0682700000 -2.0348680000 -0.5586910000
O -5.4013950000 -1.4642420000 -0.3674000000
H -5.8075770000 0.6870430000 0.8318660000
H -4.2034730000 1.3268670000 0.4223970000
H -4.4233460000 0.3923590000 1.9011580000
