33
0 1
N -0.9393570000 2.5752500000 -0.2378430000
C 0.3037500000 1.9766620000 -0.2454740000
C 0.1702970000 0.6175360000 -0.0661740000
C -1.2381520000 0.3667940000 0.0589750000
C -1.9934600000 -0.8041690000 0.2567810000
C -3.3703530000 -0.6937410000 0.3431140000
C -4.0191750000 0.5566730000 0.2361160000
C -3.2964490000 1.7223320000 0.0366380000
C -1.9034890000 1.6121370000 -0.0525400000
H -1.1079940000 3.5582260000 -0.3468380000
H 1.1897340000 2.5746140000 -0.3812030000
H -1.5293440000 -1.7766770000 0.3565060000
H -5.0959200000 0.5904100000 0.3337660000
H -3.7963790000 2.6795850000 -0.0358260000
O -4.1260330000 -1.8277340000 0.5831530000
C -4.7699100000 -2.3120170000 -0.5924940000
H -4.0336620000 -2.5891170000 -1.3508570000
H -5.4464560000 -1.5635370000 -1.0109540000
H -5.3390960000 -3.1898860000 -0.2982940000
C 1.2509140000 -0.4185150000 -0.0024420000
C 2.6461020000 0.1535120000 -0.2260940000
N 3.6333790000 -0.9101470000 -0.1566300000
C 4.9846530000 -0.7607330000 0.0163930000
C 5.4563480000 0.6097550000 0.4582750000
H 1.0578210000 -1.1894030000 -0.7561270000
H 1.2316660000 -0.9225010000 0.9675980000
H 2.8616150000 0.8882930000 0.5483690000
H 2.6781480000 0.6688820000 -1.1921160000
H 3.3787730000 -1.8044230000 -0.5479700000
O 5.7554250000 -1.6936830000 -0.1523470000
H 5.0049530000 0.8886760000 1.4103900000
H 5.1912620000 1.3714840000 -0.2753100000
H 6.5351180000 0.5736390000 0.5672890000
