12
0 1
C 1.0058740000 0.1075220000 0.0075240000
O 1.1485280000 1.2970790000 -0.0983020000
C -0.2700920000 -0.6080130000 0.3863880000
H -0.1298390000 -0.9349510000 1.4236780000
C -1.4882780000 0.2529560000 0.2690800000
H -0.3581860000 -1.5180170000 -0.2068270000
C -2.6003180000 -0.1189550000 -0.3479130000
H -2.6898680000 -1.0862630000 -0.8275460000
H -3.4621110000 0.5319870000 -0.3965460000
H -1.4213160000 1.2320250000 0.7274130000
O 2.0222980000 -0.7693260000 -0.1795030000
H 2.8115820000 -0.2478580000 -0.3882100000
