15
0 1
C -0.4895880000 0.1636540000 0.1444060000
O -0.6325570000 1.3514100000 0.0038430000
C 0.8022930000 -0.5280150000 0.5251280000
H 0.8239140000 -1.5252730000 0.0884150000
C 2.0192330000 0.2647460000 0.1623710000
C 3.0639100000 -0.2347720000 -0.4821900000
H 2.0085590000 1.3065480000 0.4585770000
H 3.9267650000 0.3742010000 -0.7137390000
H 3.0948790000 -1.2694630000 -0.8019750000
H 0.7533380000 -0.6661190000 1.6120370000
O -1.4910790000 -0.7281200000 0.0128460000
C -2.7818840000 -0.1745890000 -0.2944810000
H -3.4545420000 -1.0234520000 -0.3621250000
H -3.1000520000 0.5062160000 0.4927270000
H -2.7475530000 0.3648830000 -1.2388330000
