12
0 1
C -1.0911870000 -0.0429050000 0.0000000000
O -2.2674640000 0.2460140000 0.0000000000
C 0.0000000000 0.9274580000 0.0000000000
H -0.3201100000 1.9619430000 0.0000000000
C 1.2928280000 0.5873580000 0.0000000000
C 2.4263360000 1.5483230000 0.0000000000
H 3.0611410000 1.3841910000 0.8742510000
H 3.0611410000 1.3841910000 -0.8742510000
H 1.5527170000 -0.4666450000 0.0000000000
H 2.0882400000 2.5826620000 0.0000000000
C -0.7007880000 -1.4729380000 0.0000000000
N -0.4095080000 -2.5854620000 0.0000000000
