12
0 1
C -0.8237950000 -0.5764270000 0.0661850000
O -1.5547110000 -1.4273920000 -0.3682850000
C 0.5421980000 -0.8212630000 0.6693610000
H 0.6119490000 -1.8872230000 0.8837720000
C 1.6087090000 -0.3824040000 -0.2995330000
H 0.6242180000 -0.2546940000 1.5984990000
C 2.3637300000 0.6949170000 -0.1392440000
H 2.2683460000 1.3328700000 0.7302920000
H 3.1055000000 0.9751100000 -0.8739770000
H 1.7168430000 -0.9966730000 -1.1862500000
C -1.2224820000 0.8461130000 0.0059340000
N -1.5284750000 1.9548760000 -0.0031810000
