14
0 1
C 0.9573330000 -0.8914510000 -0.2130060000
O 2.0622230000 -0.8171460000 0.2569080000
H 0.5488050000 -1.8631200000 -0.5565970000
C -0.0032420000 0.2776430000 -0.3763960000
H -0.2926430000 0.2680530000 -1.4338080000
C -1.2341640000 -0.0217930000 0.4383080000
C -2.4006600000 -0.4142300000 -0.0560920000
H -1.1142990000 0.0838330000 1.5124130000
H -3.2435830000 -0.6277520000 0.5867190000
H -2.5565200000 -0.5271690000 -1.1220740000
C 0.6393530000 1.6112970000 -0.0094800000
H 0.9237900000 1.6249880000 1.0421710000
H 1.5422850000 1.7808020000 -0.5940380000
H -0.0573380000 2.4287400000 -0.1900550000
