15
0 1
C 2.4121360000 0.6921300000 0.0000000000
O 3.4251450000 0.0292780000 0.0000000000
H 2.4638330000 1.8011180000 0.0000000000
C 1.0559060000 0.1421420000 0.0000000000
H 0.9457590000 -0.9333250000 0.0000000000
C 0.0000000000 0.9563590000 0.0000000000
C -1.4254500000 0.5355330000 0.0000000000
H -1.9275720000 0.9680440000 0.8802070000
H 0.1594780000 2.0310270000 0.0000000000
H -1.9275720000 0.9680440000 -0.8802070000
O -1.5429420000 -0.8637220000 0.0000000000
C -2.8865300000 -1.3034260000 0.0000000000
H -3.4198690000 -0.9527540000 -0.8907340000
H -2.8681830000 -2.3902800000 0.0000000000
H -3.4198690000 -0.9527540000 0.8907340000
