15
0 1
C -1.7894880000 -0.5109130000 -0.1968650000
O -2.9446110000 -0.2545890000 -0.4156500000
H -1.2947510000 -1.3737440000 -0.6822570000
C -0.9117260000 0.2909130000 0.7429800000
H -0.8588900000 -0.2650620000 1.6852170000
C 0.4781080000 0.4563630000 0.2035000000
H -1.3855230000 1.2503490000 0.9335270000
C 0.9426400000 1.5910380000 -0.3205000000
H 0.3034580000 2.4588950000 -0.3488370000
H 1.9386830000 1.6927490000 -0.7194050000
O 1.1573130000 -0.7186960000 0.2965460000
C 2.4746910000 -0.7626180000 -0.2334030000
H 2.8314760000 -1.7759640000 -0.0751220000
H 2.4723850000 -0.5327150000 -1.3010970000
H 3.1261920000 -0.0569350000 0.2865270000
