15
0 1
C 0.9766520000 -1.2366390000 0.0883480000
O 2.1412300000 -1.0066340000 -0.1502010000
H 0.6497350000 -2.2403430000 0.4219290000
C -0.1344280000 -0.2758630000 -0.0317200000
C -1.3875110000 -0.7329430000 0.1275810000
C -2.6276310000 0.0749850000 -0.0147860000
H -2.4005210000 1.1289400000 -0.1524790000
H -1.4934090000 -1.7875430000 0.3501430000
H -3.2669950000 -0.0438470000 0.8630080000
H -3.2125470000 -0.2664720000 -0.8734130000
O 0.0906360000 1.0098700000 -0.4108500000
C 1.1301720000 1.7345680000 0.2632570000
H 2.1124260000 1.3561420000 -0.0045810000
H 1.0197150000 2.7667750000 -0.0575830000
H 0.9931410000 1.6758260000 1.3453070000
