12
0 1
C 0.9617400000 1.0452790000 0.1106530000
C -0.0746310000 -0.0002490000 0.5054200000
C 1.0238520000 -1.0464010000 0.0691980000
C 1.8730420000 0.1536220000 -0.2818940000
H 0.9258410000 2.1250670000 0.1373870000
H -0.3703390000 -0.0308840000 1.5531730000
H 0.7410590000 -1.7021300000 -0.7564600000
H 1.3796630000 -1.6578940000 0.8982700000
H 2.8675050000 0.2407520000 -0.6969860000
C -1.2908810000 -0.0138170000 -0.3729180000
H -1.0646780000 -0.0623840000 -1.4596430000
O -2.4297230000 0.0321080000 0.0176880000
