12
0 1
C 0.0000000000 0.8823190000 0.0000000000
C 1.2214480000 0.0508740000 0.0000000000
C 0.8994260000 -1.2442490000 0.0000000000
C -0.5857580000 -1.4866660000 0.0000000000
C -1.1949050000 -0.0763710000 0.0000000000
H 2.2133100000 0.4762730000 0.0000000000
H 1.6097630000 -2.0601410000 0.0000000000
H -0.8809380000 -2.0728390000 0.8732210000
H -1.8107160000 0.1236280000 0.8762240000
H -1.8107160000 0.1236280000 -0.8762240000
O -0.0601280000 2.0908550000 0.0000000000
H -0.8809380000 -2.0728390000 -0.8732210000
