14
-2 1
S -0.9916270000 0.3274660000 -0.0337370000
O -2.4131050000 0.4083020000 -0.4632950000
O -0.1659770000 -0.3511040000 -1.1246210000
O -0.8623600000 -0.5047880000 1.2251230000
O -0.4309820000 1.6990830000 0.2170950000
O 2.3002010000 2.0255050000 0.4391150000
H 1.3134040000 1.9621660000 0.4015470000
H 2.5381550000 1.1366840000 0.1303510000
O 0.4018770000 -2.7361340000 0.5128790000
H 0.2964750000 -2.4251960000 -0.3993070000
H -0.0723300000 -1.9640860000 0.9369440000
O 2.4083520000 -0.7352000000 -0.6739180000
H 2.2080920000 -1.3962410000 0.0030990000
H 1.4670500000 -0.4726450000 -0.9086860000
