14
-2 1
S -0.4022550000 0.1053740000 0.0491850000
O -1.3644160000 0.9342340000 -0.7550960000
O 0.6267210000 -0.5060860000 -0.8813560000
O -1.1438290000 -0.9803180000 0.7733630000
O 0.3223420000 0.9821770000 1.0447070000
O 2.7238940000 1.3895350000 -0.0603370000
H 1.8872870000 1.3471700000 0.4833180000
H 2.3731770000 0.8916470000 -0.8154610000
O -3.7211960000 -0.3970900000 -0.1222840000
H -3.1142080000 0.2580830000 -0.5293330000
H -3.0039940000 -0.8609100000 0.3590340000
O 2.9579350000 -1.6347310000 -0.0439450000
H 3.2347820000 -0.7546120000 0.2467330000
H 2.0271500000 -1.4132460000 -0.3036900000
