14
-2 1
S -0.0001360000 0.0027830000 0.5716590000
O 1.2375820000 -0.6992520000 0.0455830000
O 0.0009150000 0.0142640000 2.0563680000
O -1.2239030000 -0.7242620000 0.0473360000
O -0.0147950000 1.4198580000 0.0300930000
O 2.5917620000 1.5224630000 -0.9884640000
H 2.4321100000 0.5966650000 -0.7118130000
H 1.7023530000 1.8331830000 -0.7212030000
O 0.0308330000 -3.0136610000 -0.9661130000
H 0.7417070000 -2.3955630000 -0.6981050000
H -0.6939810000 -2.4122690000 -0.6979070000
O -2.6203430000 1.4710500000 -0.9905990000
H -1.7365300000 1.7967050000 -0.7219490000
H -2.4455220000 0.5481850000 -0.7138640000
