17
-2 1
S 0.6582940000 -0.5639570000 0.0186800000
O 0.7064170000 0.9556090000 -0.0087890000
O -0.0743830000 -1.0012530000 1.2583670000
O 2.0534420000 -1.1012250000 0.0227720000
O -0.0846150000 -1.0475580000 -1.1972740000
O -2.7448570000 -0.6283120000 1.1825080000
H -1.7709120000 -0.8253320000 1.2490380000
H -2.8545720000 -0.5634730000 0.2194780000
O -2.4392780000 0.1841970000 -1.6702360000
H -2.2689030000 1.0016770000 -1.1737350000
H -1.5661800000 -0.2828540000 -1.5656700000
O 3.5198540000 1.2640590000 -0.0347360000
H 2.5892870000 1.5592200000 -0.0338710000
H 3.3004770000 0.3085690000 -0.0140210000
O -1.7025950000 2.0874630000 0.4972980000
H -2.1127920000 1.3425690000 0.9667330000
H -0.7878820000 1.7310640000 0.3360370000
