20
-2 1
O 2.2910120000 1.0901570000 0.0454100000
S 0.8392870000 0.7460270000 0.0219870000
O 0.1568220000 1.2570640000 1.2577190000
O 0.6871440000 -0.7763340000 -0.0184120000
O 0.1803780000 1.3146660000 -1.2008150000
H -1.4939760000 0.8778460000 1.5223240000
O -2.4181990000 0.5274680000 1.6240650000
H -2.2437250000 -0.4294220000 1.5911920000
H -1.5372440000 1.1837860000 -1.2705990000
O -2.5078630000 0.9749420000 -1.2514780000
H -2.6546890000 0.8659930000 -0.2933050000
H -1.9299760000 -0.8202670000 -1.6552150000
O -1.4245260000 -1.6560710000 -1.6637230000
H -0.5728550000 -1.3501770000 -1.2781320000
H -1.6632470000 -2.2310940000 0.2592490000
O -1.3569370000 -2.1584220000 1.1798690000
H -0.5323280000 -1.6435800000 1.0102720000
H 3.3482670000 -0.4328670000 0.0074820000
O 3.5092720000 -1.4006150000 -0.0194500000
H 2.5695990000 -1.6498800000 -0.0345750000
