20
-2 1
O -0.1584890000 -1.2435190000 -0.4545280000
S -0.5072390000 0.0043780000 0.3242340000
O 0.2762050000 0.0306190000 1.5996560000
O -1.9807690000 0.0132510000 0.6145050000
O -0.1547810000 1.2150190000 -0.5094300000
H 2.9035140000 0.9749610000 0.4630360000
O 2.9360510000 0.5221630000 1.3219770000
H 1.9709600000 0.3751610000 1.4959310000
H -1.7167570000 2.4088540000 -0.6699220000
O -2.6613730000 2.5389740000 -0.4639550000
H -2.7728060000 1.6864700000 -0.0014970000
H -2.7823460000 -1.6755640000 0.0595070000
O -2.6760550000 -2.5463540000 -0.3689100000
H -1.7294360000 -2.4323150000 -0.5750630000
H 2.5026680000 0.1853870000 -1.5170040000
O 2.3799530000 1.1492370000 -1.5267860000
H 1.4432310000 1.2256470000 -1.2142970000
H 2.8079100000 -1.1692410000 0.1447860000
O 2.5313050000 -1.6766130000 -0.6362880000
H 1.5454830000 -1.5969120000 -0.5792650000
