20
-2 1
O -0.4599260000 -0.7090120000 1.2133660000
S 0.0481360000 0.0222370000 -0.0019560000
O -0.4650940000 -0.6678720000 -1.2389100000
O 1.5588400000 0.0092160000 -0.0052720000
O -0.4417080000 1.4417890000 0.0229030000
H -2.1960920000 -1.3763250000 0.7051490000
O -2.8322320000 -1.5360650000 -0.0216540000
H -2.1993720000 -1.3523740000 -0.7456300000
H 1.0357920000 2.6856770000 0.0514140000
O 1.9992420000 2.8472350000 0.0559380000
H 2.2545580000 1.9083980000 0.0366710000
H -2.3148050000 1.5399160000 0.0276000000
O -3.2892480000 1.4270650000 0.0282160000
H -3.3517420000 0.4585290000 0.0125400000
H 0.9817790000 -1.2644110000 -2.3370230000
O 1.9388300000 -1.3642120000 -2.5109620000
H 2.2314810000 -0.9204340000 -1.6965400000
H 0.9900990000 -1.3459920000 2.2814930000
O 1.9474210000 -1.4547110000 2.4489090000
H 2.2391750000 -0.9831170000 1.6500480000
