9
0 1
O 1.1847028840 1.1150792192 -0.0344640507
H 0.4939088041 0.9563766562 0.6340088702
H 2.0242676275 1.0811245807 0.4301416591
O -1.1469443445 0.0697648847 1.1470196379
H -1.2798307687 -0.5232168795 1.8902833555
H -1.0641398381 -0.4956693506 0.3569250322
O -0.1633507773 -1.0289346074 -1.2401807682
H 0.4914771242 -0.3248733081 -1.0784838153
H -0.5400907109 -0.8496511952 -2.1052499206
