15
0 1
O -1.1268024056 -1.5421147535 1.3115375389
H -0.7661903113 -2.0208888427 2.0619128563
H -1.0425473293 -0.5875811451 1.5375503991
O 0.0803781118 -2.0408213618 -1.0866271467
H -0.5297872816 -2.5676516789 -1.6076619140
H -0.3615744489 -1.8901965284 -0.2198678244
O 0.8653564377 2.1577268754 -0.0051264338
H 0.9896837823 1.5118343835 -0.7375001119
H 1.7477174093 2.4024393648 0.2841735836
O -0.7980208999 1.1055424512 1.8833964340
H -0.1925383363 1.5158526834 1.2242824827
H -1.5800472059 1.6620635970 1.9082724329
O 1.1675334745 0.3103576658 -1.9923084073
H 0.7679384719 0.5364348260 -2.8354387106
H 0.7789005314 -0.5529975366 -1.7265951789
