18
0 1
O -2.1262429686 0.9197497966 1.8264958422
H -2.1881222159 1.4620146230 2.6158476378
H -1.5986357615 1.4265182146 1.1737716506
O -0.6242003939 -1.3533165744 1.1757102705
H -1.1988054489 -0.6794287338 1.5877759026
H 0.2729832570 -0.9963074600 1.2645231266
O 1.8287624393 0.1754817090 0.6422638637
H 2.0392499101 -0.2029455045 -0.2401564479
H 2.6632512230 0.2979341237 1.1013749337
O -0.8422994745 -0.8438539166 -1.4490438853
H -1.5454762538 -1.3161820260 -1.9016514656
H -0.8613423436 -1.1366363939 -0.4986366366
O -0.4537151314 1.8328263969 -0.1915392200
H -0.7281657294 1.1638104660 -0.8364546119
H 0.4013688414 1.5054303811 0.1303423060
O 1.8922042765 -0.9099854437 -1.8706972469
H 2.1537550752 -0.3720141671 -2.6222492342
H 0.9154306990 -0.9730954910 -1.9076767853
