7
+1 1
O -1.1997281082 0.0290201010 0.1157470457
H -1.6314241215 -0.7333199232 0.5284064566
H -1.6940017447 0.2956236358 -0.6724224838
O 1.1997281082 -0.0290201010 0.1157470457
H 0.0000000000 0.0000000000 0.0565379629
H 1.6940017447 -0.2956236358 -0.6724224838
H 1.6314241215 0.7333199232 0.5284064566
