10
+1 1
O 0.4277116594 0.1671946137 2.0994890642
H 0.9102224993 -0.5137363918 2.5809869678
H 0.2026631100 0.8688028198 2.7211374206
O 0.4277116594 0.1671946137 -2.0994890642
H 0.9102224993 -0.5137363918 -2.5809869678
H 0.2026631100 0.8688028198 -2.7211374206
O -0.8926665894 -0.1070719749 0.0000000000
H -0.3409152170 -0.0421313246 0.8806907153
H -0.3409152170 -0.0421313246 -0.8806907153
H -1.5066975141 -0.8531874594 0.0000000000
