13
+1 1
O 0.4488552236 2.4506609600 -0.1128380157
H 0.5365644528 3.1082363703 0.5858366794
H 0.9587366961 2.7678607653 -0.8657249741
O -2.3467622592 -0.8366104538 -0.1128380157
H -2.8764060849 -0.5536400483 -0.8657249741
H -2.9600938841 -1.0894397382 0.5858366794
O 1.8979070356 -1.6140505062 -0.1128380157
H 2.4235294312 -2.0187966321 0.5858366794
H 1.9176693889 -2.2142207170 -0.8657249741
O 0.0000000000 0.0000000000 0.4980371903
H 0.7206737721 -0.6586451742 0.2267139136
H 0.2100665669 0.9534443816 0.2267139136
H -0.9307403390 -0.2947992074 0.2267139136
