8
-1 1
H -1.4579586841 0.0040843235 0.0244593678
O -2.4291204176 0.0733054584 -0.3263150806
H 0.0000000000 0.0000000000 1.4813682746
H -2.4564986414 0.9567436418 -0.6994169903
O 0.0000000000 0.0000000000 0.5211771316
H 1.4579586841 -0.0040843235 0.0244593678
O 2.4291204176 -0.0733054584 -0.3263150806
H 2.4564986414 -0.9567436418 -0.6994169903
