14
-1 1
H -0.0267917589 1.5818251229 0.2834249173
H 1.5818251229 0.0267917589 0.2834249173
H 0.0267917589 -1.5818251229 0.2834249173
H -1.5818251229 -0.0267917589 0.2834249173
O 0.0000000000 0.0000000000 0.9578998807
H 0.0000000000 0.0000000000 1.9177035057
O 0.0314199315 2.4185664365 -0.2529904905
O 2.4185664365 -0.0314199315 -0.2529904905
O -0.0314199315 -2.4185664365 -0.2529904905
O -2.4185664365 0.0314199315 -0.2529904905
H 0.8430479731 2.2785224742 -0.7493352734
H 2.2785224742 -0.8430479731 -0.7493352734
H -0.8430479731 -2.2785224742 -0.7493352734
H -2.2785224742 0.8430479731 -0.7493352734
