20
-1 1
O 0.2309965619 -1.7501603038 -1.6137318443
H 0.3547703966 -1.4268651679 -2.5095197653
H -0.4863598968 -1.1511868699 -1.2247679312
O -0.8187276724 -1.8096256612 1.5257333991
H -0.3247737339 -2.4623292628 1.0212857611
H -1.1694888971 -1.1908733882 0.8176223999
O -0.9356309173 2.0631218402 1.0559168595
H -1.2826167722 1.2542290454 0.5973567195
H -0.4402953288 2.4787493821 0.3372992608
O 1.0346386670 0.3062361567 2.1888663702
H 0.4723615914 -0.4881286388 2.1220176931
H 0.4232867536 1.0226880755 1.9283640716
O 0.2656542504 1.7374371444 -1.6823816713
H 1.0715576354 1.3171856227 -1.3358042564
H -0.4373016890 1.1167994814 -1.3960601937
O 2.2703738232 -0.0203257791 -0.4001794471
H 1.9574442668 0.1070627353 0.5173216630
H 1.6919800384 -0.7185752187 -0.7539802917
O -1.4854286034 -0.1445915337 -0.4478202250
H -2.3924404739 -0.2408476595 -0.7475385720
