9
0 1
O -0.5253297940 -0.0509710840 -0.3145168610
H -0.9420066330 0.7479016310 0.0112528160
H 0.4036965250 0.0597859810 -0.0735683680
O 2.8496041960 0.0415208110 0.1123763150
H 3.2175870200 -0.5305565920 0.7899046420
C 3.3146092670 -0.4301091050 -1.1497827950
H 2.8837921720 0.2209845860 -1.9028968270
H 4.4005729540 -0.3793162440 -1.2240947230
H 2.9862666490 -1.4499786020 -1.3488634290
