10
0 1
O -0.6874648960 -0.1117443270 -0.0196254720
H -1.0461215440 0.7759382080 0.0127068450
H 0.2740425190 0.0258506540 -0.0034972620
N 2.7871131990 0.1250074000 0.0084927260
H 3.0824776300 -0.4276305750 -0.7862981370
H 3.0971936940 -0.3857136910 0.8253522190
C 3.4464484760 1.4333713650 -0.0317489120
H 3.1359060540 2.0150963250 0.8327665080
H 4.5377577660 1.3940763930 -0.0407045810
H 3.1197362040 1.9692888340 -0.9195727240
