10
0 1
O -0.6874648960 -0.1117443270 -0.0196254720
H -1.0461215440 0.7759382080 0.0127068450
H 0.2740425190 0.0258506540 -0.0034972620
N 4.2948956540 0.1844990830 0.0156864330
H 4.5902600850 -0.3681388920 -0.7791044300
H 4.6049761490 -0.3262220080 0.8325459260
C 4.9542309310 1.4928630480 -0.0245552050
H 4.6436885090 2.0745880080 0.8399602150
H 6.0455402210 1.4535680760 -0.0335108740
H 4.6275186590 2.0287805170 -0.9123790170
