15
0 1
O -0.3920184530 -0.3847187370 0.0760713250
H -0.9114608510 0.4138120400 0.1776487740
H 0.5249038200 -0.0684846940 0.0905113640
C 2.1461911450 -2.2508696100 -0.2294325450
H 2.7961539880 -3.1119814870 -0.3623479320
H 1.4652151750 -2.1733975510 -1.0732978200
H 1.5331742470 -2.3896655970 0.6575758180
C 2.9009232230 -0.9528567330 -0.0968390380
O 2.3242077760 0.1224381230 0.0597497040
N 4.2515563460 -1.0503594170 -0.1614570070
H 4.6525079740 -1.9608933960 -0.2909721050
C 5.1197984580 0.1016110430 -0.0520139250
H 4.4833043280 0.9699114860 0.0827706820
H 5.7853879650 0.0101558450 0.8040789560
H 5.7142641810 0.2310315320 -0.9542731120
