15
0 1
O -0.3920184530 -0.3847187370 0.0760713250
H -0.9114608510 0.4138120400 0.1776487740
H 0.5249038200 -0.0684846940 0.0905113640
C 2.7143609960 -2.1905815260 -0.2391462160
H 3.3643238390 -3.0516934030 -0.3720616030
H 2.0333850260 -2.1131094670 -1.0830114910
H 2.1013440980 -2.3293775130 0.6478621470
C 3.4690930740 -0.8925686490 -0.1065527090
O 2.8923776270 0.1827262070 0.0500360330
N 4.8197261970 -0.9900713330 -0.1711706780
H 5.2206778250 -1.9006053120 -0.3006857760
C 5.6879683090 0.1618991270 -0.0617275960
H 5.0514741790 1.0301995700 0.0730570110
H 6.3535578160 0.0704439290 0.7943652850
H 6.2824340320 0.2913196160 -0.9639867830
