15
0 1
O -0.3920184530 -0.3847187370 0.0760713250
H -0.9114608510 0.4138120400 0.1776487740
H 0.5249038200 -0.0684846940 0.0905113640
C 4.2962004900 -2.0227337020 -0.2661900110
H 4.9461633330 -2.8838455790 -0.3991053980
H 3.6152245200 -1.9452616430 -1.1100552860
H 3.6831835920 -2.1615296890 0.6208183520
C 5.0509325680 -0.7247208250 -0.1335965040
O 4.4742171210 0.3505740310 0.0229922380
N 6.4015656910 -0.8222235090 -0.1982144730
H 6.8025173190 -1.7327574880 -0.3277295710
C 7.2698078030 0.3297469510 -0.0887713910
H 6.6333136730 1.1980473940 0.0460132160
H 7.9353973100 0.2382917530 0.7673214900
H 7.8642735260 0.4591674400 -0.9910305780
