12
0 1
O -0.6361349280 -0.0232824110 0.2805993210
H 0.3080973720 -0.0470787480 0.0764636910
C -1.1520654070 -1.3112877830 0.0152595490
H -2.2099450230 -1.2962653920 0.2639558630
H -1.0566102400 -1.5926708590 -1.0361906060
H -0.6748357460 -2.0862727650 0.6205114490
O 2.7246724950 -0.1424080940 -0.0360447860
H 3.1934618050 0.4719764300 -0.6057107400
C 3.2335064210 0.0146108440 1.2856725380
H 2.6799373410 -0.6735855830 1.9158034180
H 4.2925025230 -0.2358280550 1.3423956790
H 3.0810667830 1.0253048970 1.6635650840
