13
0 1
O -0.7069201920 0.0458303670 0.0063861040
H 0.2656236150 0.0717101430 0.0013392930
C -1.0766706670 -1.3139158130 0.0016142800
H -2.1629235760 -1.3631957700 0.0058654240
H -0.7234059450 -1.8446516760 -0.8877434980
H -0.7160797780 -1.8528208280 0.8830797750
N 2.1336989190 -0.0326460190 -0.0031750920
H 2.5043184710 0.4751304870 0.7899572990
H 2.5044417590 0.4316925480 -0.8224339260
C 2.6114508550 -1.4186794660 0.0342861130
H 2.2195660180 -1.9527047430 -0.8279056160
H 3.6981620110 -1.5254146340 0.0373206080
H 2.2193244540 -1.9054096350 0.9239182600
