13
0 1
O -0.7069201920 0.0458303670 0.0063861040
H 0.2656236150 0.0717101430 0.0013392930
C -1.0766706670 -1.3139158130 0.0016142800
H -2.1629235760 -1.3631957700 0.0058654240
H -0.7234059450 -1.8446516760 -0.8877434980
H -0.7160797780 -1.8528208280 0.8830797750
N 4.1983033750 -0.1479808750 -0.0081644080
H 4.5689229270 0.3597956310 0.7849679830
H 4.5690462150 0.3163576920 -0.8274232420
C 4.6760553110 -1.5340143220 0.0292967970
H 4.2841704740 -2.0680395990 -0.8328949320
H 5.7627664670 -1.6407494900 0.0323312920
H 4.2839289100 -2.0207444910 0.9189289440
