7
0 1
N -0.8934512160 -0.0438443220 -0.0429974550
H 0.0969482610 -0.2560594480 -0.0710699280
H -1.3684387910 -0.9333906520 0.0338377260
C -1.1757824750 0.7579076950 1.1452371920
H -2.2416266040 0.9722160100 1.1950246430
H -0.8807895520 0.3042467380 2.0972090960
H -0.6630057220 1.7143293970 1.0608091640
