7
0 1
N -0.6386413800 0.4709163720 0.0445684770
H 0.1899543590 -0.1139371620 -0.0057736050
H -1.3004689450 0.0812568020 -0.6136684800
C -1.1986588200 0.3913985770 1.3919465990
H -2.0927377710 1.0092447150 1.4531674950
H -1.4627455120 -0.6158436680 1.7294521900
H -0.4802755390 0.7986749120 2.1010873050
