14
0 1
N -0.6386413800 0.4709163720 0.0445684770
H 0.1899543590 -0.1139371620 -0.0057736050
H -1.3004689450 0.0812568020 -0.6136684800
C -1.1986588200 0.3913985770 1.3919465990
H -2.0927377710 1.0092447150 1.4531674950
H -1.4627455120 -0.6158436680 1.7294521900
H -0.4802755390 0.7986749120 2.1010873050
N 3.7010452120 -0.6568821500 0.3166041600
H 3.9973138820 -0.3823444150 -0.6113810830
H 4.3245948790 -1.4045724660 0.5917990230
C 3.8612751880 0.4783284430 1.2302794640
H 3.5910848840 0.1636326630 2.2359325730
H 4.8686854990 0.9001050020 1.2672511980
H 3.1687348050 1.2641039250 0.9376222180
