19
0 1
N -0.5697082360 0.8143724550 0.1010977470
H 0.1308777380 0.5614106510 -0.5876145530
H -1.4612521500 0.5269147990 -0.2804299610
C -0.3055143670 0.0657103010 1.3287917320
H -1.0571494790 0.3142701690 2.0759594010
H -0.2880235280 -1.0222924840 1.2148462600
H 0.6604577250 0.3685091290 1.7302422430
C 2.2938786770 2.6874703300 -0.1543979970
H 2.4184971470 3.0986470610 -1.1534423290
H 2.8004500530 3.3284628820 0.5633865230
H 1.2274669210 2.6609408030 0.0640234320
C 2.8058703680 1.2696726490 -0.1521039650
O 2.3458904830 0.4039362300 -0.8912785780
N 3.7923533370 0.9966403030 0.7402267430
H 4.1921143580 1.7515730780 1.2655794970
C 4.3807986760 -0.3229502420 0.8177263100
H 3.5926220640 -1.0642803890 0.7247057140
H 5.1020584580 -0.4949456140 0.0191819180
H 4.8754521890 -0.4388184310 1.7776658380
