19
0 1
N -0.5697082360 0.8143724550 0.1010977470
H 0.1308777380 0.5614106510 -0.5876145530
H -1.4612521500 0.5269147990 -0.2804299610
C -0.3055143670 0.0657103010 1.3287917320
H -1.0571494790 0.3142701690 2.0759594010
H -0.2880235280 -1.0222924840 1.2148462600
H 0.6604577250 0.3685091290 1.7302422430
C 3.8739887200 2.5751337690 -0.3710209380
H 3.9986071900 2.9863105000 -1.3700652700
H 4.3805600960 3.2161263210 0.3467635820
H 2.8075769640 2.5486042420 -0.1525995090
C 4.3859804110 1.1573360880 -0.3687269060
O 3.9260005260 0.2915996690 -1.1079015190
N 5.3724633800 0.8843037420 0.5236038020
H 5.7722244010 1.6392365170 1.0489565560
C 5.9609087190 -0.4352868030 0.6011033690
H 5.1727321070 -1.1766169500 0.5080827730
H 6.6821685010 -0.6072821750 -0.1974410230
H 6.4555622320 -0.5511549920 1.5610428970
