19
0 1
C -0.7785733370 -0.4633206420 2.4903876790
H 0.2247446240 -0.0509529370 2.4134835500
H -0.7224799430 -1.4870917960 2.8545846360
H -1.3519075730 0.1108169260 3.2136836480
C -1.5205025920 -0.4566276850 1.1723250000
O -2.7008352140 -0.7835857320 1.0895968160
N -0.7919536080 -0.0696404840 0.1005893710
H 0.1941116520 0.1457079040 0.2029246390
C -1.3977983430 -0.0560824480 -1.2113179280
H -2.3149280130 0.5288912100 -1.1997099140
H -0.6988042160 0.3872613040 -1.9153662130
H -1.6529823220 -1.0615289480 -1.5454349540
N 4.3167012230 0.3652639760 0.3634469140
H 4.7203675480 0.9051835040 1.1186470040
H 4.7347050960 0.7326452250 -0.4821990070
C 4.6890040620 -1.0459188380 0.5171996630
H 4.2627166620 -1.6169514230 -0.3041757870
H 5.7644027040 -1.2326082870 0.5429830600
H 4.2545314890 -1.4303258500 1.4370356640
