24
0 1
C -0.7015029360 -0.2906276980 2.4068843960
H -1.1832959560 0.3956477700 3.0988742200
H 0.3495615710 -0.0303215720 2.3078330350
H -0.7940568540 -1.2916054510 2.8240392910
C -1.4485462460 -0.2448766360 1.0918152990
O -2.6604500040 -0.4284790880 1.0343457680
N -0.6700565630 0.0059165570 0.0097769120
H 0.3266753190 0.1225639580 0.1415928390
C -1.2270545740 0.0897937370 -1.3199675410
H -2.2920242560 -0.1065011860 -1.2408775620
H -1.0778016920 1.0799403000 -1.7485435400
H -0.7766284890 -0.6479991900 -1.9833727340
C 1.9660365890 -2.3470692290 0.6804717780
H 2.5242613930 -3.2570724650 0.4745637750
H 1.0373447310 -2.3535986790 0.1161463610
H 1.7068176600 -2.3236225300 1.7374127780
C 2.7336725310 -1.0926571900 0.3442350390
O 2.1884858880 0.0087796150 0.2872626480
N 4.0604307440 -1.2614709570 0.1304870690
H 4.4367520440 -2.1887166530 0.2072443950
C 4.9476689280 -0.1550049840 -0.1584614660
H 4.3334765480 0.7358047920 -0.2382851790
H 5.6750834780 -0.0155392520 0.6389418410
H 5.4726592210 -0.3149867120 -1.0976038020
