12
0 1
C -0.7015029360 -0.2906276980 2.4068843960
H -1.1832959560 0.3956477700 3.0988742200
H 0.3495615710 -0.0303215720 2.3078330350
H -0.7940568540 -1.2916054510 2.8240392910
C -1.4485462460 -0.2448766360 1.0918152990
O -2.6604500040 -0.4284790880 1.0343457680
N -0.6700565630 0.0059165570 0.0097769120
H 0.3266753190 0.1225639580 0.1415928390
C -1.2270545740 0.0897937370 -1.3199675410
H -2.2920242560 -0.1065011860 -1.2408775620
H -1.0778016920 1.0799403000 -1.7485435400
H -0.7766284890 -0.6479991900 -1.9833727340
