14
0 1
O -0.5528310240 -0.1016974900 -0.0004987880
H -0.8717596330 0.8017921980 0.0001444000
H 0.4126594970 -0.0018322480 -0.0002518100
N 2.6050425980 0.1087833030 0.0001960360
C 3.3009492370 0.0748125110 1.1449438820
H 2.7162766860 0.0984234530 2.0558119100
C 4.6899728290 0.0096300790 1.1949399460
H 5.1958792100 -0.0152240760 2.1492690680
C 5.4011359740 -0.0234957190 0.0000288000
H 6.4809759250 -0.0752692720 -0.0000516280
C 4.6898276760 0.0095634240 -1.1947724970
H 5.1956246230 -0.0153096030 -2.1491710980
C 3.3007976620 0.0747584150 -1.1446262370
H 2.7160287790 0.0983590700 -2.0554187900
