17
0 1
O -0.6276517740 0.0874672690 0.0014712850
H 0.3436020340 0.1223033290 -0.0006004450
C -0.9779312310 -1.2785560060 0.0012384070
H -2.0633920940 -1.3420433240 0.0050089800
H -0.6148836860 -1.8063758370 -0.8853839540
H -0.6086403260 -1.8082368240 0.8841727320
N 2.3910496790 0.0099159720 -0.0016900130
C 3.0874180680 -0.0145193590 -1.1464096170
H 2.5029394710 0.0087041760 -2.0573850550
C 4.4770551310 -0.0642622230 -1.1950948670
H 4.9844074790 -0.0815542550 -2.1488775910
C 5.1874283590 -0.0899748400 0.0005181600
H 6.2677643620 -0.1277395930 0.0013674550
C 4.4751809070 -0.0649537330 1.1950580130
H 4.9809796410 -0.0827780600 2.1495437050
C 3.0856272640 -0.0152040460 1.1441039280
H 2.4996214780 0.0074703810 2.0542226140
