17
0 1
O -0.6276517740 0.0874672690 0.0014712850
H 0.3436020340 0.1223033290 -0.0006004450
C -0.9779312310 -1.2785560060 0.0012384070
H -2.0633920940 -1.3420433240 0.0050089800
H -0.6148836860 -1.8063758370 -0.8853839540
H -0.6086403260 -1.8082368240 0.8841727320
N 2.4885424310 0.0045644540 -0.0017418940
C 3.1849108200 -0.0198708770 -1.1464614980
H 2.6004322230 0.0033526580 -2.0574369360
C 4.5745478830 -0.0696137410 -1.1951467480
H 5.0819002310 -0.0869057730 -2.1489294720
C 5.2849211110 -0.0953263580 0.0004662790
H 6.3652571140 -0.1330911110 0.0013155740
C 4.5726736590 -0.0703052510 1.1950061320
H 5.0784723930 -0.0881295780 2.1494918240
C 3.1831200160 -0.0205555640 1.1440520470
H 2.5971142300 0.0021188630 2.0541707330
