17
0 1
O -0.6276517740 0.0874672690 0.0014712850
H 0.3436020340 0.1223033290 -0.0006004450
C -0.9779312310 -1.2785560060 0.0012384070
H -2.0633920940 -1.3420433240 0.0050089800
H -0.6148836860 -1.8063758370 -0.8853839540
H -0.6086403260 -1.8082368240 0.8841727320
N 2.7810206870 -0.0114900990 -0.0018975390
C 3.4773890760 -0.0359254300 -1.1466171430
H 2.8929104790 -0.0127018950 -2.0575925810
C 4.8670261390 -0.0856682940 -1.1953023930
H 5.3743784870 -0.1029603260 -2.1490851170
C 5.5773993670 -0.1113809110 0.0003106340
H 6.6577353700 -0.1491456640 0.0011599290
C 4.8651519150 -0.0863598040 1.1948504870
H 5.3709506490 -0.1041841310 2.1493361790
C 3.4755982720 -0.0366101170 1.1438964020
H 2.8895924860 -0.0139356900 2.0540150880
