17
0 1
O -0.6276517740 0.0874672690 0.0014712850
H 0.3436020340 0.1223033290 -0.0006004450
C -0.9779312310 -1.2785560060 0.0012384070
H -2.0633920940 -1.3420433240 0.0050089800
H -0.6148836860 -1.8063758370 -0.8853839540
H -0.6086403260 -1.8082368240 0.8841727320
N 4.2434119700 -0.0917628680 -0.0026757640
C 4.9397803590 -0.1161981990 -1.1473953680
H 4.3553017620 -0.0929746640 -2.0583708060
C 6.3294174220 -0.1659410630 -1.1960806180
H 6.8367697700 -0.1832330950 -2.1498633420
C 7.0397906500 -0.1916536800 -0.0004675910
H 8.1201266530 -0.2294184330 0.0003817040
C 6.3275431980 -0.1666325730 1.1940722620
H 6.8333419320 -0.1844569000 2.1485579540
C 4.9379895550 -0.1168828860 1.1431181770
H 4.3519837690 -0.0942084590 2.0532368630
