8
0 1
C 2.7995649740 1.1084644520 0.2712619440
O 2.0959466090 0.1351499640 0.0314743420
O 2.3271386400 2.3108998400 0.5590404150
H 1.3333501000 2.2780016060 0.5446399110
C 4.2962774220 1.0625617060 0.2692975490
H 4.6338569860 0.0612425130 0.0317720540
H 4.6777759670 1.7729146450 -0.4601713490
H 4.6677937330 1.3652562230 1.2453529100
