9
0 1
C 2.7938882640 1.0641819300 0.1352464280
O 2.2094665010 0.0901614940 -0.3444845380
N 2.1498007000 2.1489251530 0.6030929820
H 1.1296953320 2.1933629370 0.5687916650
H 2.6678247660 2.9168863530 0.9832136320
C 4.3008874460 1.0884663100 0.2204715130
H 4.6927585100 1.9881158260 0.6876555230
H 4.7044436400 1.0009212730 -0.7853087960
H 4.6286662080 0.2178914060 0.7826518510
