18
0 1
C -1.3097497450 1.1801761730 -0.0251703410
O -0.7253004380 2.1551476690 0.4527133460
N -0.6656211560 0.0950546960 -0.4919944910
H 0.3545826620 0.0514481660 -0.4593092170
H -1.1836270370 -0.6735996920 -0.8707560960
C -2.8167193400 1.1559986490 -0.1106059750
H -3.2206289490 1.2625414550 0.8930823860
H -3.2094275380 0.2486340160 -0.5619000900
H -3.1431581320 2.0165956330 -0.6888931150
C 4.7981753090 1.1057431140 0.2599933030
O 4.2137535460 0.1317226780 -0.2197376630
N 4.1540877450 2.1904863370 0.7278398570
H 3.1339823770 2.2349241210 0.6935385400
H 4.6721118110 2.9584475370 1.1079605070
C 6.3051744910 1.1300274940 0.3452183880
H 6.6970455550 2.0296770100 0.8124023980
H 6.7087306850 1.0424824570 -0.6605619210
H 6.6329532530 0.2594525900 0.9073987260
