12
0 1
N 4.1969731480 1.0881621800 0.1828503630
H 4.5901782610 0.1727719510 0.0111309360
C 5.1185010550 2.1362777980 0.3643034730
O 6.3156474400 1.9179819900 0.3114235100
C 4.4794349840 3.4157401800 0.6049106240
H 5.0989697480 4.2826650580 0.7563878980
C 3.1323507820 3.4957303350 0.6342918600
H 2.6095105910 4.4241773360 0.8095900690
N 2.3286200310 2.4050483480 0.4438858290
H 1.3045682010 2.4749960400 0.4676760900
C 2.8285525170 1.1548255640 0.2097136060
O 2.1165200710 0.1653206770 0.0362434260
