8
0 1
C -1.1136261150 1.3270200950 0.2751670550
O -0.4670826410 2.3493877820 0.4615374620
O -0.5780893880 0.1369204850 0.0496174730
H 0.4133203640 0.2032566050 0.0554871080
C -2.6114246860 1.2861895730 0.2773613070
H -3.0066487180 2.2768854470 0.4657898270
H -2.9642562270 0.9152586790 -0.6820012320
H -2.9531142110 0.5917982100 1.0412404120
