20
0 1
C -1.1136261150 1.3270200950 0.2751670550
O -0.4670826410 2.3493877820 0.4615374620
O -0.5780893880 0.1369204850 0.0496174730
H 0.4133203640 0.2032566050 0.0554871080
C -2.6114246860 1.2861895730 0.2773613070
H -3.0066487180 2.2768854470 0.4657898270
H -2.9642562270 0.9152586790 -0.6820012320
H -2.9531142110 0.5917982100 1.0412404120
N 4.3675699370 1.0924664280 0.1822069740
H 4.7607750500 0.1770761990 0.0104875470
C 5.2890978440 2.1405820460 0.3636600840
O 6.4862442290 1.9222862380 0.3107801210
C 4.6500317730 3.4200444280 0.6042672350
H 5.2695665370 4.2869693060 0.7557445090
C 3.3029475710 3.5000345830 0.6336484710
H 2.7801073800 4.4284815840 0.8089466800
N 2.4992168200 2.4093525960 0.4432424400
H 1.4751649900 2.4793002880 0.4670327010
C 2.9991493060 1.1591298120 0.2090702170
O 2.2871168600 0.1696249250 0.0356000370
