9
0 1
C -1.2327270030 1.2116389640 -0.1416240610
O -0.5712766730 2.2420157330 0.0256167870
N -0.6705805100 0.0038887800 -0.3142814730
H 0.3438469450 -0.0905601050 -0.3083266670
H -1.2442137340 -0.8063236990 -0.4466827100
C -2.7382449550 1.2667576640 -0.1558865720
H -3.0779753390 1.6466051060 0.8045015920
H -3.2021150340 0.3028654890 -0.3462111160
H -3.0499874730 1.9754904930 -0.9185973670
