12
0 1
N 4.2006526810 1.1175105090 -0.1194734270
H 4.6906821280 0.2415533290 -0.2374118960
C 5.0042786930 2.2603554480 0.0310082690
O 6.2198407200 2.1647331240 0.0158234930
C 4.2316865180 3.4756719310 0.1941522070
H 4.7534495080 4.4088647940 0.3171873300
C 2.8825258060 3.4139964020 0.1884754500
H 2.2621217550 4.2903567880 0.3061523470
N 2.1974436990 2.2417148940 0.0339096840
H 1.1646532210 2.2326538300 0.0330723660
C 2.8283336640 1.0372453960 -0.1283503520
O 2.2311449340 -0.0266705650 -0.2701578430
