21
0 1
C -1.2327270030 1.2116389640 -0.1416240610
O -0.5712766730 2.2420157330 0.0256167870
N -0.6705805100 0.0038887800 -0.3142814730
H 0.3438469450 -0.0905601050 -0.3083266670
H -1.2442137340 -0.8063236990 -0.4466827100
C -2.7382449550 1.2667576640 -0.1558865720
H -3.0779753390 1.6466051060 0.8045015920
H -3.2021150340 0.3028654890 -0.3462111160
H -3.0499874730 1.9754904930 -0.9185973670
N 4.2875546270 1.1188183370 -0.1183791400
H 4.7775840740 0.2428611570 -0.2363176090
C 5.0911806390 2.2616632760 0.0321025560
O 6.3067426660 2.1660409520 0.0169177800
C 4.3185884640 3.4769797590 0.1952464940
H 4.8403514540 4.4101726220 0.3182816170
C 2.9694277520 3.4153042300 0.1895697370
H 2.3490237010 4.2916646160 0.3072466340
N 2.2843456450 2.2430227220 0.0350039710
H 1.2515551670 2.2339616580 0.0341666530
C 2.9152356100 1.0385532240 -0.1272560650
O 2.3180468800 -0.0253627370 -0.2690635560
