21
0 1
C -1.2327270030 1.2116389640 -0.1416240610
O -0.5712766730 2.2420157330 0.0256167870
N -0.6705805100 0.0038887800 -0.3142814730
H 0.3438469450 -0.0905601050 -0.3083266670
H -1.2442137340 -0.8063236990 -0.4466827100
C -2.7382449550 1.2667576640 -0.1558865720
H -3.0779753390 1.6466051060 0.8045015920
H -3.2021150340 0.3028654890 -0.3462111160
H -3.0499874730 1.9754904930 -0.9185973670
N 4.6347463910 1.1240433870 -0.1140072330
H 5.1247758380 0.2480862070 -0.2319457020
C 5.4383724030 2.2668883260 0.0364744630
O 6.6539344300 2.1712660020 0.0212896870
C 4.6657802280 3.4822048090 0.1996184010
H 5.1875432180 4.4153976720 0.3226535240
C 3.3166195160 3.4205292800 0.1939416440
H 2.6962154650 4.2968896660 0.3116185410
N 2.6315374090 2.2482477720 0.0393758780
H 1.5987469310 2.2391867080 0.0385385600
C 3.2624273740 1.0437782740 -0.1228841580
O 2.6652386440 -0.0201376870 -0.2646916490
