24
0 1
C 0.7126453250 1.1209957010 0.0605407830
H 1.3578416490 1.9863991670 0.1277371690
C 1.2582357310 -0.1592519010 0.1242335180
H 2.3249542770 -0.2870998780 0.2467430350
C 0.4268849630 -1.2745266620 0.0426504280
H 0.8504446490 -2.2684326800 0.0947499520
C -0.9495778450 -1.1100740580 -0.1003135950
H -1.5944556960 -1.9762737030 -0.1637134800
C -1.4955256400 0.1710505610 -0.1615460180
H -2.5637827910 0.2992211490 -0.2737031150
C -0.6638276010 1.2866428870 -0.0834014330
H -1.0869006970 2.2810002040 -0.1328861350
C 1.8888047070 1.1106856640 3.4272352620
H 2.5336498310 1.9768694070 3.4909859800
C 2.4347578330 -0.1704654350 3.4887549950
H 3.5029647170 -0.2986124850 3.6014992140
C 1.6031083530 -1.2860655350 3.4101045660
H 2.0261900600 -2.2804179700 3.4597582290
C 0.2267067920 -1.1204305060 3.2653878180
H -0.4183958040 -1.9858407500 3.1977551860
C -0.3188530790 0.1598022410 3.2014219900
H -1.3854811130 0.2876314540 3.0782432290
C 0.5124238710 1.2750830030 3.2834929340
H 0.0888989890 2.2689880370 3.2311240040
