12
0 1
C 1.9494882130 1.1101162940 3.6008335540
H 2.5943333370 1.9763000370 3.6645842720
C 2.4954413390 -0.1710348050 3.6623532870
H 3.5636482230 -0.2991818550 3.7750975060
C 1.6637918590 -1.2866349050 3.5837028580
H 2.0868735660 -2.2809873400 3.6333565210
C 0.2873902980 -1.1209998760 3.4389861100
H -0.3577122980 -1.9864101200 3.3713534780
C -0.2581695730 0.1592328710 3.3750202820
H -1.3247976070 0.2870620840 3.2518415210
C 0.5731073770 1.2745136330 3.4570912260
H 0.1495824950 2.2684186670 3.4047222960
