24
0 1
C 0.7126453250 1.1209957010 0.0605407830
H 1.3578416490 1.9863991670 0.1277371690
C 1.2582357310 -0.1592519010 0.1242335180
H 2.3249542770 -0.2870998780 0.2467430350
C 0.4268849630 -1.2745266620 0.0426504280
H 0.8504446490 -2.2684326800 0.0947499520
C -0.9495778450 -1.1100740580 -0.1003135950
H -1.5944556960 -1.9762737030 -0.1637134800
C -1.4955256400 0.1710505610 -0.1615460180
H -2.5637827910 0.2992211490 -0.2737031150
C -0.6638276010 1.2866428870 -0.0834014330
H -1.0869006970 2.2810002040 -0.1328861350
C 2.0097529700 1.1095508530 3.7732339260
H 2.6545980940 1.9757345960 3.8369846440
C 2.5557060960 -0.1716002460 3.8347536590
H 3.6239129800 -0.2997472960 3.9474978780
C 1.7240566160 -1.2872003460 3.7561032300
H 2.1471383230 -2.2815527810 3.8057568930
C 0.3476550550 -1.1215653170 3.6113864820
H -0.2974475410 -1.9869755610 3.5437538500
C -0.1979048160 0.1586674300 3.5474206540
H -1.2645328500 0.2864966430 3.4242418930
C 0.6333721340 1.2739481920 3.6294915980
H 0.2098472520 2.2678532260 3.5771226680
