22
0 1
N 1.5724814490 0.2545491580 -0.2564813150
C 0.9693599010 -0.9031603180 0.0445261350
H 1.6136389140 -1.7721812050 0.1023451980
C -0.3981581150 -1.0288191130 0.2809604300
H -0.8184247700 -1.9917371050 0.5335636380
C -1.1958052500 0.1065577920 0.1953973240
H -2.2606896430 0.0495386490 0.3734427960
C -0.5871282910 1.3174123870 -0.1201054400
H -1.1618122340 2.2295000270 -0.2004625730
C 0.7885473320 1.3397056710 -0.3322405270
H 1.2884320160 2.2687943610 -0.5785268960
N -0.5231866140 -1.5069210390 3.7521712810
C -1.4556647070 -0.5462915840 3.8260224390
H -2.4584539540 -0.8772463830 4.0682153050
C -1.1936616690 0.8047768400 3.6166430580
H -1.9922194260 1.5292822750 3.6949141510
C 0.1057656640 1.1940181230 3.3063746490
H 0.3477502220 2.2330166050 3.1305033940
C 1.0853249720 0.2111199680 3.2230131850
H 2.1076262110 0.4578657130 2.9745762050
C 0.7228452520 -1.1140177900 3.4562061790
H 1.4667060170 -1.8995724240 3.3997575820
