11
0 1
N -0.5231866140 -1.5069210390 3.7521712810
C -1.4556647070 -0.5462915840 3.8260224390
H -2.4584539540 -0.8772463830 4.0682153050
C -1.1936616690 0.8047768400 3.6166430580
H -1.9922194260 1.5292822750 3.6949141510
C 0.1057656640 1.1940181230 3.3063746490
H 0.3477502220 2.2330166050 3.1305033940
C 1.0853249720 0.2111199680 3.2230131850
H 2.1076262110 0.4578657130 2.9745762050
C 0.7228452520 -1.1140177900 3.4562061790
H 1.4667060170 -1.8995724240 3.3997575820
