23
0 1
C 0.8187469880 0.8641723400 0.1882861160
H 1.4661136110 1.7166676670 0.3447214070
C 1.3689971190 -0.3905239410 -0.0666981820
H 2.4430363670 -0.5118619400 -0.1105744390
C 0.5343786020 -1.4884931960 -0.2718880370
H 0.9608482520 -2.4615642170 -0.4755074910
C -0.8491156130 -1.3305073450 -0.2198964340
H -1.4970694240 -2.1818602850 -0.3795532110
C -1.3994854560 -0.0760302020 0.0404341650
H -2.4726866690 0.0449077780 0.0933820570
C -0.5652923030 1.0214033600 0.2422792080
H -0.9925566730 1.9936613080 0.4462581680
N -2.3247134600 0.1260567130 3.2522570140
C -1.7098275290 1.2837245230 3.5323212040
H -2.3574315860 2.1368959760 3.6948332970
C -0.3276126310 1.4245722590 3.6224920200
H 0.1042361270 2.3882223740 3.8537083170
C 0.4733387600 0.3075929550 3.4082781090
H 1.5509079280 0.3779772330 3.4631126190
C -0.1472131430 -0.9010620830 3.1146185320
H 0.4285613670 -1.7966839660 2.9305435950
C -1.5377274200 -0.9390999660 3.0491691140
H -2.0465803450 -1.8675533440 2.8203264400
