23
0 1
C 0.8187469880 0.8641723400 0.1882861160
H 1.4661136110 1.7166676670 0.3447214070
C 1.3689971190 -0.3905239410 -0.0666981820
H 2.4430363670 -0.5118619400 -0.1105744390
C 0.5343786020 -1.4884931960 -0.2718880370
H 0.9608482520 -2.4615642170 -0.4755074910
C -0.8491156130 -1.3305073450 -0.2198964340
H -1.4970694240 -2.1818602850 -0.3795532110
C -1.3994854560 -0.0760302020 0.0404341650
H -2.4726866690 0.0449077780 0.0933820570
C -0.5652923030 1.0214033600 0.2422792080
H -0.9925566730 1.9936613080 0.4462581680
N -2.4677078020 0.1960503960 3.7724051650
C -1.8528218710 1.3537182060 4.0524693550
H -2.5004259280 2.2068896590 4.2149814480
C -0.4706069730 1.4945659420 4.1426401710
H -0.0387582150 2.4582160570 4.3738564680
C 0.3303444180 0.3775866380 3.9284262600
H 1.4079135860 0.4479709160 3.9832607700
C -0.2902074850 -0.8310684000 3.6347666830
H 0.2855670250 -1.7266902830 3.4506917460
C -1.6807217620 -0.8691062830 3.5693172650
H -2.1895746870 -1.7975596610 3.3404745910
