12
0 1
C 0.8257691050 1.2365248370 -0.0402504370
H 1.5210131680 2.0631251960 -0.0824714480
C 1.3001599240 -0.0629408790 0.1272560130
H 2.3636575280 -0.2422611310 0.2076741970
C 0.4035231170 -1.1285521820 0.1982448570
H 0.7737533760 -2.1374267680 0.3241210910
C -0.9678094940 -0.8951904890 0.1031399410
H -1.6652090000 -1.7199834220 0.1604274460
C -1.4435083790 0.4044832790 -0.0624413020
H -2.5075112450 0.5855011240 -0.1241501630
C -0.5457554930 1.4687687480 -0.1362474080
H -0.9142219040 2.4774222010 -0.2678551640
