24
0 1
C 0.8257691050 1.2365248370 -0.0402504370
H 1.5210131680 2.0631251960 -0.0824714480
C 1.3001599240 -0.0629408790 0.1272560130
H 2.3636575280 -0.2422611310 0.2076741970
C 0.4035231170 -1.1285521820 0.1982448570
H 0.7737533760 -2.1374267680 0.3241210910
C -0.9678094940 -0.8951904890 0.1031399410
H -1.6652090000 -1.7199834220 0.1604274460
C -1.4435083790 0.4044832790 -0.0624413020
H -2.5075112450 0.5855011240 -0.1241501630
C -0.5457554930 1.4687687480 -0.1362474080
H -0.9142219040 2.4774222010 -0.2678551640
N -0.2699510390 0.6577310560 3.3487856710
H -0.6432584320 1.5594924860 3.0858927000
C 1.1221956430 0.5847441500 3.4807990100
O 1.8131059620 1.5791678420 3.3359649450
C 1.6010957570 -0.7493335590 3.7989092120
H 2.6581478510 -0.9015494980 3.9330303480
C 0.7213865300 -1.7637147350 3.9251257370
H 1.0273140510 -2.7721353440 4.1616500980
N -0.6238593570 -1.5786828150 3.7550335940
H -1.2726071880 -2.3412417580 3.8539027650
C -1.1983076660 -0.3538817870 3.4556189780
O -2.3960960780 -0.2030585120 3.3135067860
