24
0 1
C 0.8257691050 1.2365248370 -0.0402504370
H 1.5210131680 2.0631251960 -0.0824714480
C 1.3001599240 -0.0629408790 0.1272560130
H 2.3636575280 -0.2422611310 0.2076741970
C 0.4035231170 -1.1285521820 0.1982448570
H 0.7737533760 -2.1374267680 0.3241210910
C -0.9678094940 -0.8951904890 0.1031399410
H -1.6652090000 -1.7199834220 0.1604274460
C -1.4435083790 0.4044832790 -0.0624413020
H -2.5075112450 0.5855011240 -0.1241501630
C -0.5457554930 1.4687687480 -0.1362474080
H -0.9142219040 2.4774222010 -0.2678551640
N -0.2175172240 0.5103475040 4.7330225600
H -0.5908246170 1.4121089340 4.4701295890
C 1.1746294580 0.4373605980 4.8650358990
O 1.8655397770 1.4317842900 4.7202018340
C 1.6535295720 -0.8967171110 5.1831461010
H 2.7105816660 -1.0489330500 5.3172672370
C 0.7738203450 -1.9110982870 5.3093626260
H 1.0797478660 -2.9195188960 5.5458869870
N -0.5714255420 -1.7260663670 5.1392704830
H -1.2201733730 -2.4886253100 5.2381396540
C -1.1458738510 -0.5012653390 4.8398558670
O -2.3436622630 -0.3504420640 4.6977436750
