23
0 1
N 1.2107553350 0.0286757780 0.3297111130
C 0.6119349700 -1.1584490110 0.1534517640
H 1.2514779050 -2.0295234040 0.2192929470
C -0.7513139900 -1.3086495590 -0.0888340710
H -1.1704157740 -2.2968693180 -0.2133832040
C -1.5478676700 -0.1699402680 -0.1564669120
H -2.6110127470 -0.2459546940 -0.3387557440
C -0.9436223740 1.0706361170 0.0198230980
H -1.5188143050 1.9845002850 -0.0116440280
C 0.4277185700 1.1161086290 0.2573487920
H 0.9246945130 2.0680517340 0.3975479850
N -0.6994536080 -0.2760953650 3.4512514010
H -1.5943426270 -0.7079588560 3.2666479130
C -0.6991987220 1.1217144270 3.5442624020
O -1.7390817990 1.7499142300 3.4294122720
C 0.6202960310 1.6807957720 3.7718254690
H 0.7216123970 2.7480179420 3.8676936500
C 1.6901696220 0.8621034700 3.8433455220
H 2.6940486620 1.2307681680 3.9917720550
N 1.5721084810 -0.4951897940 3.7307908580
H 2.3855444750 -1.0873771440 3.7226232190
C 0.3716615440 -1.1424222220 3.5044091610
O 0.2795242970 -2.3478402980 3.3708298820
