23
0 1
N 1.2107553350 0.0286757780 0.3297111130
C 0.6119349700 -1.1584490110 0.1534517640
H 1.2514779050 -2.0295234040 0.2192929470
C -0.7513139900 -1.3086495590 -0.0888340710
H -1.1704157740 -2.2968693180 -0.2133832040
C -1.5478676700 -0.1699402680 -0.1564669120
H -2.6110127470 -0.2459546940 -0.3387557440
C -0.9436223740 1.0706361170 0.0198230980
H -1.5188143050 1.9845002850 -0.0116440280
C 0.4277185700 1.1161086290 0.2573487920
H 0.9246945130 2.0680517340 0.3975479850
N -0.5655762730 -0.1994242250 4.9519617680
H -1.4604652920 -0.6312877160 4.7673582800
C -0.5653213870 1.1983855670 5.0449727690
O -1.6052044640 1.8265853700 4.9301226390
C 0.7541733660 1.7574669120 5.2725358360
H 0.8554897320 2.8246890820 5.3684040170
C 1.8240469570 0.9387746100 5.3440558890
H 2.8279259970 1.3074393080 5.4924824220
N 1.7059858160 -0.4185186540 5.2315012250
H 2.5194218100 -1.0107060040 5.2233335860
C 0.5055388790 -1.0657510820 5.0051195280
O 0.4134016320 -2.2711691580 4.8715402490
