17
0 1
N 1.3813821910 -0.0002334770 0.1314637390
C 0.6793507880 -1.1402394570 0.0920796600
H 1.2587196040 -2.0549622320 0.1258836110
C -0.7097223190 -1.1931140690 0.0066642650
H -1.2140876790 -2.1485616330 -0.0253085100
C -1.4216135740 0.0001334270 -0.0408169010
H -2.5006961460 0.0002575710 -0.1091697330
C -0.7094011970 1.1931753800 0.0065219830
H -1.2135116260 2.1487478390 -0.0255283090
C 0.6796516660 1.1399562290 0.0918930280
H 1.2592607300 2.0545108980 0.1255024780
C 0.0177119440 0.6664301730 3.2769672100
H 0.9281859470 1.2259158920 3.1178523670
H -0.8918355540 1.2288344000 3.4339277140
C 0.0180446280 -0.6662571270 3.2770994490
H 0.9287803190 -1.2253396110 3.1180890160
H -0.8912434660 -1.2290818980 3.4341886000
