34
0 1
C -2.5333086500 -0.2948790670 0.7131487580
H -2.5636268200 -0.9770818090 -0.1364226410
H -2.5669783520 -0.8958759000 1.6217317680
H -3.4344261100 0.3159571310 0.6841044720
C -1.2718848660 0.5576554680 0.6743546770
H -1.2710263030 1.2565657140 1.5143194050
H -1.2666325490 1.1678958140 -0.2318265310
C -0.0001350430 -0.2784182180 0.7196031480
H -0.0001593750 -0.8872295160 1.6286370860
H -0.0003654250 -0.9807141840 -0.1194043920
C 1.2718947600 0.5573821870 0.6740610790
H 1.2709717550 1.2566333120 1.5137054100
H 1.2666364900 1.1671825020 -0.2323869250
C 2.5334037580 -0.2949417600 0.7132801490
H 2.5639191860 -0.9777741010 -0.1357783620
H 3.4343095550 0.3162543160 0.6835994500
H 2.5675582050 -0.8952088680 1.6223286490
C 2.5335567700 0.2916774650 4.6772395650
H 2.5681412570 0.8914841630 3.7679140170
H 2.5640600810 0.9748840420 5.5259843860
H 3.4342374610 -0.3198198410 4.7074485050
C 1.2717305680 -0.5602098060 4.7165438170
H 1.2662868580 -1.1699375190 5.6230407770
H 1.2706000560 -1.2595635500 3.8769627550
C -0.0000444220 0.2758892940 4.6709273770
H -0.0001993490 0.9781992720 5.5099118510
H 0.0000324740 0.8846657130 3.7618577420
C -1.2718052610 -0.5602526850 4.7161989150
H -1.2664230210 -1.1703621340 5.6224490180
H -1.2706989210 -1.2592755770 3.8763352620
C -2.5335244910 0.2917936240 4.6772212090
H -2.5677177930 0.8923272920 3.7683444510
H -3.4343264670 -0.3195047310 4.7067343910
H -2.5640640250 0.9743798640 5.5264825990
