34
0 1
C -2.5333086500 -0.2948790670 0.7131487580
H -2.5636268200 -0.9770818090 -0.1364226410
H -2.5669783520 -0.8958759000 1.6217317680
H -3.4344261100 0.3159571310 0.6841044720
C -1.2718848660 0.5576554680 0.6743546770
H -1.2710263030 1.2565657140 1.5143194050
H -1.2666325490 1.1678958140 -0.2318265310
C -0.0001350430 -0.2784182180 0.7196031480
H -0.0001593750 -0.8872295160 1.6286370860
H -0.0003654250 -0.9807141840 -0.1194043920
C 1.2718947600 0.5573821870 0.6740610790
H 1.2709717550 1.2566333120 1.5137054100
H 1.2666364900 1.1671825020 -0.2323869250
C 2.5334037580 -0.2949417600 0.7132801490
H 2.5639191860 -0.9777741010 -0.1357783620
H 3.4343095550 0.3162543160 0.6835994500
H 2.5675582050 -0.8952088680 1.6223286490
C 2.5335563070 0.2887726400 4.8198281220
H 2.5681407940 0.8885793380 3.9105025740
H 2.5640596180 0.9719792170 5.6685729430
H 3.4342369980 -0.3227246660 4.8500370620
C 1.2717301050 -0.5631146310 4.8591323740
H 1.2662863950 -1.1728423440 5.7656293340
H 1.2705995930 -1.2624683750 4.0195513120
C -0.0000448850 0.2729844690 4.8135159340
H -0.0001998120 0.9752944470 5.6525004080
H 0.0000320110 0.8817608880 3.9044462990
C -1.2718057240 -0.5631575100 4.8587874720
H -1.2664234840 -1.1732669590 5.7650375750
H -1.2706993840 -1.2621804020 4.0189238190
C -2.5335249540 0.2888887990 4.8198097660
H -2.5677182560 0.8894224670 3.9109330080
H -3.4343269300 -0.3224095560 4.8493229480
H -2.5640644880 0.9714750390 5.6690711560
