34
0 1
C -2.5303828750 -0.4175753280 0.6813064270
H -2.5598860300 -0.9827899760 -0.2501561860
H -2.5540362540 -1.1338649550 1.5026578950
H -3.4362135480 0.1841437570 0.7367713280
C -1.2761568330 0.4436349310 0.7500248350
H -1.2780838370 1.0252178540 1.6750854760
H -1.2803389920 1.1685556440 -0.0671580590
C 0.0022047020 -0.3807161980 0.6789925650
H 0.0078289370 -1.1114130370 1.4938312220
H 0.0062486620 -0.9605226980 -0.2488204570
C 1.2683334740 0.4623963460 0.7493691260
H 1.2620198550 1.0442502860 1.6742464450
H 1.2616348840 1.1870571090 -0.0680345840
C 2.5349662720 -0.3804246930 0.6806863610
H 2.5724402420 -0.9457165190 -0.2504518640
H 3.4319811680 0.2344149150 0.7355777170
H 2.5692077140 -1.0958100300 1.5024560840
C -0.0005894840 0.0862921170 6.0266218110
C 0.0004822590 -0.0538389880 7.5463547650
H -0.8865537660 0.4102370540 7.9797241780
H 0.0097337610 -1.1046192350 7.8393646340
H 0.8791424820 0.4258255740 7.9799978340
C -1.2400448210 -0.5953599140 5.4527233000
H -1.2633440350 -0.5064027900 4.3658941150
H -1.2521304500 -1.6566363090 5.7057365010
H -2.1509885420 -0.1430686560 5.8478084200
C 1.2520156280 -0.5712486900 5.4531514730
H 1.2733424140 -0.4829630250 4.3661805140
H 1.2851461620 -1.6318095300 5.7072437920
H 2.1538278620 -0.1006053780 5.8475725950
C -0.0148373590 1.5660846080 5.6520005350
H 0.8629286380 2.0766716260 6.0509556660
H -0.0153615600 1.6925395340 4.5683488460
H -0.9029433080 2.0594183200 6.0497886760
