34
0 1
C 0.3825222060 -0.0706069720 0.7668958170
C -1.0406394720 0.3968112550 1.0609359330
H -1.7715745960 -0.2815002480 0.6183302330
H -1.2247177700 0.4357350850 2.1355188990
H -1.2140660310 1.3937244370 0.6530906470
C 0.5908474720 -1.4668181370 1.3479779090
H 1.6029137970 -1.8229499970 1.1501028540
H 0.4389685820 -1.4667459830 2.4282866850
H -0.1099190560 -2.1786842500 0.9093139010
C 1.3782690480 0.8984353620 1.3991494400
H 2.4043939720 0.5854407400 1.2007336520
H 1.2437809240 0.9459742980 2.4807099140
H 1.2483731800 1.9050226190 0.9989507070
C 0.6019609410 -0.1110341940 -0.7430965900
H 0.4592118240 0.8770390980 -1.1828981920
H 1.6136939870 -0.4434594510 -0.9796720980
H -0.0995307830 -0.7975498230 -1.2192206900
C -0.3590389840 0.0663601140 5.8567401290
C 1.0637734690 -0.4026058860 5.5633405880
H 1.2482126710 -0.4419350370 4.4888201220
H 1.7952076180 0.2750669420 6.0060761630
H 1.2360371360 -1.3996119280 5.9714611600
C -0.5654357940 1.4629216400 5.2759096540
H -1.5773988890 1.8199070870 5.4727571800
H 0.1354828040 2.1739931130 5.7156314220
H -0.4123265780 1.4631182550 4.1957672990
C -0.5793334750 0.1065363280 7.3665937570
H -1.5905496300 0.4408133140 7.6026669450
H 0.1231789800 0.7914853600 7.8434319770
H -0.4387703820 -0.8819840110 7.8060454950
C -1.3555017020 -0.9014175460 5.2235937330
H -1.2265756930 -1.9083929270 5.6231727050
H -2.3813907990 -0.5876446900 5.4219815860
H -1.2207973360 -0.9483919400 4.1420170710
