17
0 1
C 0.0497508680 0.0940220520 5.6120089760
C -0.0465933290 -0.0580639240 7.1276494550
H 0.9459530390 -0.0735301280 7.5800066760
H -0.6055180970 0.7698205770 7.5660843670
H -0.5537580270 -0.9867300030 7.3929990450
C 0.7638041110 1.4009271660 5.2763840960
H 0.8453236570 1.5344262980 4.1967022220
H 0.2203317240 2.2556156010 5.6818854800
H 1.7714086540 1.4115775810 5.6946170970
C -1.3552609450 0.1138467000 5.0146894530
H -1.3183293570 0.2310366350 3.9308404870
H -1.9375604770 0.9412702580 5.4230353730
H -1.8851640050 -0.8139401440 5.2360187460
C 0.8376506820 -1.0794628520 5.0346708030
H 0.3424303660 -2.0264535890 5.2549139510
H 0.9324938550 -0.9922800880 3.9515360260
H 1.8423687660 -1.1168674900 5.4584192590
