15
0 1
C 0.7999140790 -1.0220516430 0.6877369560
H 0.8535558760 -1.1220510120 -0.3980143550
H 1.4914020980 -1.7441693580 1.1197204030
C 1.1168870030 0.4249527880 1.0996620540
H 1.8381423040 0.8901450420 0.4304525630
H 1.5555695860 0.4398246380 2.0970835550
C -0.2445591550 1.1656895900 1.1029771400
H -0.2580776020 2.0008631350 0.4053233320
H -0.4488044990 1.5769958190 2.0909844690
C -1.2987141780 0.1038119070 0.7393089940
H -1.4735607790 0.1052433770 -0.3380054510
H -2.2567342780 0.2780411780 1.2271584270
C -0.6468799330 -1.2200683590 1.1363066000
H -1.1244391840 -2.0876270240 0.6829932670
H -0.6860186450 -1.3452833150 2.2202200650
