32
0 1
C 0.7999140790 -1.0220516430 0.6877369560
H 0.8535558760 -1.1220510120 -0.3980143550
H 1.4914020980 -1.7441693580 1.1197204030
C 1.1168870030 0.4249527880 1.0996620540
H 1.8381423040 0.8901450420 0.4304525630
H 1.5555695860 0.4398246380 2.0970835550
C -0.2445591550 1.1656895900 1.1029771400
H -0.2580776020 2.0008631350 0.4053233320
H -0.4488044990 1.5769958190 2.0909844690
C -1.2987141780 0.1038119070 0.7393089940
H -1.4735607790 0.1052433770 -0.3380054510
H -2.2567342780 0.2780411780 1.2271584270
C -0.6468799330 -1.2200683590 1.1363066000
H -1.1244391840 -2.0876270240 0.6829932670
H -0.6860186450 -1.3452833150 2.2202200650
C 0.0566947450 0.1075448560 5.9230847180
C -0.0396494520 -0.0445411200 7.4387251970
H 0.9528969160 -0.0600073240 7.8910824180
H -0.5985742200 0.7833433810 7.8771601090
H -0.5468141500 -0.9732071990 7.7040747870
C 0.7707479880 1.4144499700 5.5874598380
H 0.8522675340 1.5479491020 4.5077779640
H 0.2272756010 2.2691384050 5.9929612220
H 1.7783525310 1.4251003850 6.0056928390
C -1.3483170680 0.1273695040 5.3257651950
H -1.3113854800 0.2445594390 4.2419162290
H -1.9306166000 0.9547930620 5.7341111150
H -1.8782201280 -0.8004173400 5.5470944880
C 0.8445945590 -1.0659400480 5.3457465450
H 0.3493742430 -2.0129307850 5.5659896930
H 0.9394377320 -0.9787572840 4.2626117680
H 1.8493126430 -1.1033446860 5.7694950010
