32
0 1
C 0.7999140790 -1.0220516430 0.6877369560
H 0.8535558760 -1.1220510120 -0.3980143550
H 1.4914020980 -1.7441693580 1.1197204030
C 1.1168870030 0.4249527880 1.0996620540
H 1.8381423040 0.8901450420 0.4304525630
H 1.5555695860 0.4398246380 2.0970835550
C -0.2445591550 1.1656895900 1.1029771400
H -0.2580776020 2.0008631350 0.4053233320
H -0.4488044990 1.5769958190 2.0909844690
C -1.2987141780 0.1038119070 0.7393089940
H -1.4735607790 0.1052433770 -0.3380054510
H -2.2567342780 0.2780411780 1.2271584270
C -0.6468799330 -1.2200683590 1.1363066000
H -1.1244391840 -2.0876270240 0.6829932670
H -0.6860186450 -1.3452833150 2.2202200650
C 0.0817725900 0.1563825260 7.0465362320
C -0.0145716070 0.0042965500 8.5621767110
H 0.9779747610 -0.0111696540 9.0145339320
H -0.5734963750 0.8321810510 9.0006116230
H -0.5217363050 -0.9243695290 8.8275263010
C 0.7958258330 1.4632876400 6.7109113520
H 0.8773453790 1.5967867720 5.6312294780
H 0.2523534460 2.3179760750 7.1164127360
H 1.8034303760 1.4739380550 7.1291443530
C -1.3232392230 0.1762071740 6.4492167090
H -1.2863076350 0.2933971090 5.3653677430
H -1.9055387550 1.0036307320 6.8575626290
H -1.8531422830 -0.7515796700 6.6705460020
C 0.8696724040 -1.0171023780 6.4691980590
H 0.3744520880 -1.9640931150 6.6894412070
H 0.9645155770 -0.9299196140 5.3860632820
H 1.8743904880 -1.0545070160 6.8929465150
