32
0 1
C 0.7999140790 -1.0220516430 0.6877369560
H 0.8535558760 -1.1220510120 -0.3980143550
H 1.4914020980 -1.7441693580 1.1197204030
C 1.1168870030 0.4249527880 1.0996620540
H 1.8381423040 0.8901450420 0.4304525630
H 1.5555695860 0.4398246380 2.0970835550
C -0.2445591550 1.1656895900 1.1029771400
H -0.2580776020 2.0008631350 0.4053233320
H -0.4488044990 1.5769958190 2.0909844690
C -1.2987141780 0.1038119070 0.7393089940
H -1.4735607790 0.1052433770 -0.3380054510
H -2.2567342780 0.2780411780 1.2271584270
C -0.6468799330 -1.2200683590 1.1363066000
H -1.1244391840 -2.0876270240 0.6829932670
H -0.6860186450 -1.3452833150 2.2202200650
C 0.1108115110 0.2129341640 8.3474382300
C 0.0144673140 0.0608481880 9.8630787090
H 1.0070136820 0.0453819840 10.3154359300
H -0.5444574540 0.8887326890 10.3015136210
H -0.4926973840 -0.8678178910 10.1284282990
C 0.8248647540 1.5198392780 8.0118133500
H 0.9063843000 1.6533384100 6.9321314760
H 0.2813923670 2.3745277130 8.4173147340
H 1.8324692970 1.5304896930 8.4300463510
C -1.2942003020 0.2327588120 7.7501187070
H -1.2572687140 0.3499487470 6.6662697410
H -1.8764998340 1.0601823700 8.1584646270
H -1.8241033620 -0.6950280320 7.9714480000
C 0.8987113250 -0.9605507400 7.7701000570
H 0.4034910090 -1.9075414770 7.9903432050
H 0.9935544980 -0.8733679760 6.6869652800
H 1.9034294090 -0.9979553780 8.1938485130
