15
0 1
C 0.9568801850 -0.8918456340 1.1419500050
H 1.5045659680 -1.2783576250 0.2834201890
H 1.4213844730 -1.3147779340 2.0310254570
C 0.9909494290 0.6585082990 1.1455038450
H 1.5105944560 1.0230964620 0.2599478830
H 1.5162582290 1.0598181310 2.0105370250
C -0.4794519410 1.1023187930 1.1038791020
H -0.6162686110 2.0648772180 0.6135673670
H -0.8747422310 1.1890714440 2.1180695950
C -1.1821065010 -0.0527965550 0.3933457540
H -0.9488821590 -0.0268303030 -0.6738045920
H -2.2656645230 -0.0335647380 0.5012740260
C -0.5306595790 -1.2748895390 1.0393095940
H -0.6903906120 -2.1970209280 0.4829922140
H -0.9508493870 -1.4154119730 2.0367478240
