27
0 1
C 0.7655454590 0.8682443270 0.8209909520
H 1.4374764650 1.6800066360 1.0651028120
C 1.2376526020 -0.4428380750 0.7938879530
H 2.2757587740 -0.6485380760 1.0177114110
C 0.3722372340 -1.4885366650 0.4772686180
H 0.7381878870 -2.5060801220 0.4570560910
C -0.9649331810 -1.2229716230 0.1868783350
H -1.6364594850 -2.0345607850 -0.0577736180
C -1.4370650950 0.0884055760 0.2132771380
H -2.4746843170 0.2943021560 -0.0114674630
C -0.5719064900 1.1340241580 0.5308128050
H -0.9376993510 2.1517105830 0.5510776440
C -0.7720639040 -0.7420028630 3.8695443390
H -0.8783177450 -0.5670537030 2.7972374740
H -1.4237014790 -1.5712667590 4.1426950040
C 0.6974772820 -0.9990659530 4.2136742180
H 1.1927080620 -1.6366510010 3.4830899400
H 0.7607564570 -1.4992797260 5.1811408540
C 1.3376143280 0.4063307210 4.3046270740
H 1.9878826440 0.5990016540 3.4527741500
H 1.9504815110 0.4955001440 5.2003524360
C 0.1585682050 1.4055077390 4.3314991100
H 0.0414167170 1.8644781320 3.3492137720
H 0.3041617950 2.2070125690 5.0538977130
C -1.0752035600 0.5484125500 4.6271479750
H -2.0061920700 1.0241499960 4.3212348310
H -1.1406293230 0.3390916380 5.6976832170
