27
0 1
C 0.7655454590 0.8682443270 0.8209909520
H 1.4374764650 1.6800066360 1.0651028120
C 1.2376526020 -0.4428380750 0.7938879530
H 2.2757587740 -0.6485380760 1.0177114110
C 0.3722372340 -1.4885366650 0.4772686180
H 0.7381878870 -2.5060801220 0.4570560910
C -0.9649331810 -1.2229716230 0.1868783350
H -1.6364594850 -2.0345607850 -0.0577736180
C -1.4370650950 0.0884055760 0.2132771380
H -2.4746843170 0.2943021560 -0.0114674630
C -0.5719064900 1.1340241580 0.5308128050
H -0.9376993510 2.1517105830 0.5510776440
C -0.7500318620 -0.7030367360 4.3564173280
H -0.8562857030 -0.5280875760 3.2841104630
H -1.4016694370 -1.5323006320 4.6295679930
C 0.7195093240 -0.9600998260 4.7005472070
H 1.2147401040 -1.5976848740 3.9699629290
H 0.7827884990 -1.4603135990 5.6680138430
C 1.3596463700 0.4452968480 4.7915000630
H 2.0099146860 0.6379677810 3.9396471390
H 1.9725135530 0.5344662710 5.6872254250
C 0.1806002470 1.4444738660 4.8183720990
H 0.0634487590 1.9034442590 3.8360867610
H 0.3261938370 2.2459786960 5.5407707020
C -1.0531715180 0.5873786770 5.1140209640
H -1.9841600280 1.0631161230 4.8081078200
H -1.1185972810 0.3780577650 6.1845562060
