17
0 1
C 0.1711049690 0.5066408870 4.8189154900
C 1.6173536500 0.6854282450 4.3639540020
H 2.0332103680 1.6187061230 4.7473769820
H 2.2407529690 -0.1351873810 4.7228078710
H 1.6779627830 0.7048195340 3.2750197850
C 0.1167136000 0.4752697490 6.3437808060
H -0.9090764260 0.3478493260 6.6928685810
H 0.7121195010 -0.3504171180 6.7363345430
H 0.5050080840 1.4031543750 6.7666863880
C -0.3782750650 -0.8028510870 4.2586194700
H -1.4131486670 -0.9531261240 4.5712910590
H 0.2081815110 -1.6518248490 4.6144307370
H -0.3494952350 -0.8033038640 3.1683052270
C -0.6702678140 1.6712125740 4.3027100150
H -0.6487268570 1.7072429680 3.2127114520
H -1.7100569620 1.5674430040 4.6171924970
H -0.2946152170 2.6219070460 4.6848169260
