29
0 1
C 0.3119535260 0.5610233390 0.4966988610
H 0.7421360780 1.5533691050 0.4815657080
C 1.1421823480 -0.5580746100 0.5360618490
H 2.2165113150 -0.4342501420 0.5523501450
C 0.5878041450 -1.8366870450 0.5541443510
H 1.2319123900 -2.7048415270 0.5852217870
C -0.7966577220 -1.9963756170 0.5329630010
H -1.2267744250 -2.9884442740 0.5486370850
C -1.6268929680 -0.8774736510 0.4941682820
H -2.7011221150 -1.0013499680 0.4798149800
C -1.0726652480 0.4012059050 0.4759739720
H -1.7169735690 1.2694011700 0.4459199470
C 0.1644390360 0.5013153190 4.9840311650
C 1.6106877170 0.6801026770 4.5290696770
H 2.0265444350 1.6133805550 4.9124926570
H 2.2340870360 -0.1405129490 4.8879235460
H 1.6712968500 0.6994939660 3.4401354600
C 0.1100476670 0.4699441810 6.5088964810
H -0.9157423590 0.3425237580 6.8579842560
H 0.7054535680 -0.3557426860 6.9014502180
H 0.4983421510 1.3978288070 6.9318020630
C -0.3849409980 -0.8081766550 4.4237351450
H -1.4198146000 -0.9584516920 4.7364067340
H 0.2015155780 -1.6571504170 4.7795464120
H -0.3561611680 -0.8086294320 3.3334209020
C -0.6769337470 1.6658870060 4.4678256900
H -0.6553927900 1.7019174000 3.3778271270
H -1.7167228950 1.5621174360 4.7823081720
H -0.3012811500 2.6165814780 4.8499326010
