29
0 1
N -0.2089047780 -0.9645826230 0.5347610410
H -0.2241509860 -1.9731093960 0.6050838590
C -1.4463420780 -0.3445811200 0.3066585760
O -2.4612367550 -1.0107916100 0.1978919600
C -1.3577821950 1.1031855890 0.2281437850
H -2.2565721420 1.6677307120 0.0498473140
C -0.1630031970 1.7098925710 0.3811263220
H -0.0462904620 2.7824459090 0.3333496820
N 0.9854520990 1.0008241220 0.6112063640
H 1.8675597790 1.4669277720 0.7447843020
C 1.0270209150 -0.3791701090 0.7126472320
O 2.0491966990 -0.9973954770 0.9372597860
C 1.2139695140 2.3664476210 4.9202737280
H 0.7831209000 2.6774963160 3.9674911610
H 0.5797356030 2.7718807420 5.7085213790
H 2.1968495400 2.8268950330 5.0133952140
C 1.2869859780 0.8475766710 5.0097920690
H 1.7173696220 0.5580138150 5.9710830240
H 1.9615755700 0.4564161200 4.2446739040
C -0.0777992120 0.1894100190 4.8549753100
H -0.7490434720 0.5582858290 5.6365945510
H -0.5252700810 0.4996750360 3.9050750840
C -0.0215102740 -1.3312765320 4.9146108060
H 0.4020952220 -1.6337069470 5.8752469930
H 0.6700114690 -1.6931554710 4.1501083780
C -1.3907931960 -1.9731497420 4.7308371550
H -1.8291721910 -1.6996920590 3.7706516460
H -1.3338544030 -3.0599181290 4.7748943430
H -2.0787559740 -1.6448037590 5.5100702020
