27
0 1
N 0.1957295920 -0.8446892520 0.8238464170
H 0.4503975330 -1.7967529400 1.0497679440
C -1.1790491950 -0.5736844030 0.7594834860
O -1.9936462440 -1.4562652650 0.9669006580
C -1.4767147060 0.8111556690 0.4375595160
H -2.5063559190 1.1156505900 0.3638946930
C -0.4681128000 1.6829624490 0.2348908360
H -0.6384352220 2.7216429640 -0.0061641020
N 0.8456285360 1.3059911350 0.3268305110
H 1.5896925560 1.9688792400 0.1859597940
C 1.2542614740 0.0194618690 0.6362439740
O 2.4223043810 -0.3017163910 0.7318794800
C 1.0528850400 -0.8614189960 4.2742009750
H 1.5067375490 -0.9534752350 3.2862184210
H 1.5973875400 -1.5253992630 4.9433986470
C 1.1071985110 0.6045330060 4.7071369570
H 2.0654885020 1.0774319400 4.4964126680
H 0.9190832250 0.6861705480 5.7803600890
C -0.0601530720 1.2173474830 3.9363657560
H 0.2141512040 1.3061290860 2.8828941340
H -0.3445674960 2.2084886080 4.2879997700
C -1.1770975640 0.1797755740 4.1073940700
H -1.9026368430 0.2033894280 3.2960221580
H -1.7211831940 0.3844727300 5.0296426860
C -0.4540612190 -1.1867722570 4.2110509570
H -0.6967257650 -1.8309283820 3.3676912830
H -0.7691674460 -1.7141746710 5.1101373770
