27
0 1
N 0.1957295920 -0.8446892520 0.8238464170
H 0.4503975330 -1.7967529400 1.0497679440
C -1.1790491950 -0.5736844030 0.7594834860
O -1.9936462440 -1.4562652650 0.9669006580
C -1.4767147060 0.8111556690 0.4375595160
H -2.5063559190 1.1156505900 0.3638946930
C -0.4681128000 1.6829624490 0.2348908360
H -0.6384352220 2.7216429640 -0.0061641020
N 0.8456285360 1.3059911350 0.3268305110
H 1.5896925560 1.9688792400 0.1859597940
C 1.2542614740 0.0194618690 0.6362439740
O 2.4223043810 -0.3017163910 0.7318794800
C 1.1461572860 -0.9122414770 7.3007961260
H 1.6000097950 -1.0042977160 6.3128135720
H 1.6906597860 -1.5762217440 7.9699937980
C 1.2004707570 0.5537105250 7.7337321080
H 2.1587607480 1.0266094590 7.5230078190
H 1.0123554710 0.6353480670 8.8069552400
C 0.0331191740 1.1665250020 6.9629609070
H 0.3074234500 1.2553066050 5.9094892850
H -0.2512952500 2.1576661270 7.3145949210
C -1.0838253180 0.1289530930 7.1339892210
H -1.8093645970 0.1525669470 6.3226173090
H -1.6279109480 0.3336502490 8.0562378370
C -0.3607889730 -1.2375947380 7.2376461080
H -0.6034535190 -1.8817508630 6.3942864340
H -0.6758952000 -1.7649971520 8.1367325280
