17
0 1
C -0.6385921120 -0.0306000830 4.7735859120
C -1.9553382970 0.7106887170 4.9884588160
H -2.6624097000 0.0924825330 5.5433211570
H -1.7958387370 1.6308732650 5.5526438330
H -2.4130480720 0.9721857370 4.0333051610
C -0.0231554970 -0.3840380050 6.1248633540
H 0.9200066760 -0.9164113150 5.9940815230
H 0.1738654550 0.5157037350 6.7096654970
H -0.6944495180 -1.0217750120 6.7016001020
C 0.3265321600 0.8628777390 3.9977968190
H 1.2751026410 0.3502830320 3.8274428230
H 0.5318223590 1.7810141880 4.5512231920
H -0.0958632280 1.1413643480 3.0303323800
C -0.8999093060 -1.3106344760 3.9832210180
H -1.3636477070 -1.0888007720 3.0205963800
H 0.0326669940 -1.8490333960 3.8035843380
H -1.5704171140 -1.9724484390 4.5334059400
