29
0 1
N 0.6260812820 -0.8509126530 0.8059156910
H 0.4091898940 -1.8115005580 1.0344014230
C -0.4324561940 -0.0873358070 0.2946637590
O -1.5307716200 -0.5884031280 0.1235925740
C -0.0668746180 1.2912752150 0.0196373880
H -0.8097435230 1.9518103910 -0.3928396480
C 1.1835420770 1.7179350080 0.2905332110
H 1.5018502240 2.7338706410 0.1098328370
N 2.1341297930 0.8866016040 0.8190817700
H 3.0553359350 1.2239013740 1.0434277840
C 1.9027831880 -0.4431784400 1.1283117540
O 2.7438063060 -1.1639235370 1.6285872990
C -0.6904811050 -0.0336741310 4.9188924970
C -2.0072272900 0.7076146690 5.1337654010
H -2.7142986930 0.0894084850 5.6886277420
H -1.8477277300 1.6277992170 5.6979504180
H -2.4649370650 0.9691116890 4.1786117460
C -0.0750444900 -0.3871120530 6.2701699390
H 0.8681176830 -0.9194853630 6.1393881080
H 0.1219764620 0.5126296870 6.8549720820
H -0.7463385110 -1.0248490600 6.8469066870
C 0.2746431670 0.8598036910 4.1431034040
H 1.2232136480 0.3472089840 3.9727494080
H 0.4799333660 1.7779401400 4.6965297770
H -0.1477522210 1.1382903000 3.1756389650
C -0.9517982990 -1.3137085240 4.1285276030
H -1.4155367000 -1.0918748200 3.1659029650
H -0.0192219990 -1.8521074440 3.9488909230
H -1.6223061070 -1.9755224870 4.6787125250
