29
0 1
N 0.6260812820 -0.8509126530 0.8059156910
H 0.4091898940 -1.8115005580 1.0344014230
C -0.4324561940 -0.0873358070 0.2946637590
O -1.5307716200 -0.5884031280 0.1235925740
C -0.0668746180 1.2912752150 0.0196373880
H -0.8097435230 1.9518103910 -0.3928396480
C 1.1835420770 1.7179350080 0.2905332110
H 1.5018502240 2.7338706410 0.1098328370
N 2.1341297930 0.8866016040 0.8190817700
H 3.0553359350 1.2239013740 1.0434277840
C 1.9027831880 -0.4431784400 1.1283117540
O 2.7438063060 -1.1639235370 1.6285872990
C -0.8929257900 -0.0456675170 5.4858055220
C -2.2096719750 0.6956212830 5.7006784260
H -2.9167433780 0.0774150990 6.2555407670
H -2.0501724150 1.6158058310 6.2648634430
H -2.6673817500 0.9571183030 4.7455247710
C -0.2774891750 -0.3991054390 6.8370829640
H 0.6656729980 -0.9314787490 6.7063011330
H -0.0804682230 0.5006363010 7.4218851070
H -0.9487831960 -1.0368424460 7.4138197120
C 0.0721984820 0.8478103050 4.7100164290
H 1.0207689630 0.3352155980 4.5396624330
H 0.2774886810 1.7659467540 5.2634428020
H -0.3501969060 1.1262969140 3.7425519900
C -1.1542429840 -1.3257019100 4.6954406280
H -1.6179813850 -1.1038682060 3.7328159900
H -0.2216666840 -1.8641008300 4.5158039480
H -1.8247507920 -1.9875158730 5.2456255500
