23
0 1
C 0.6664003800 0.1838107770 0.4197368270
H 1.2288818230 -0.3298830140 1.1862597110
H 1.2280355580 0.6972081300 -0.3476098930
C -0.6659735770 0.1829734280 0.4196119100
H -1.2279217120 -0.3314988990 1.1861033440
H -1.2281842710 0.6956457460 -0.3477480810
C -2.5327536020 -0.3881461790 4.0605382000
H -2.5622470450 -1.0011669620 3.1593483210
H -2.5688875510 -1.0623667980 4.9161552140
H -3.4339249590 0.2228702490 4.0777841450
C -1.2713171160 0.4645292370 4.0963561370
H -1.2717229810 1.0846228080 4.9957500810
H -1.2629287690 1.1514375530 3.2472957250
C -0.0000428550 -0.3730283340 4.0694129300
H -0.0001969100 -1.0597010410 4.9212449440
H 0.0000982120 -1.0006061710 3.1727704380
C 1.2711775520 0.4645580950 4.0968174670
H 1.2714505540 1.0843688460 4.9963028770
H 1.2629827270 1.1516327450 3.2479098400
C 2.5326289320 -0.3881664170 4.0609932830
H 2.5622524030 -1.0010229160 3.1596841050
H 3.4338070420 0.2227697510 4.0785713220
H 2.5685472930 -1.0626224980 4.9164989940
