23
0 1
C 0.6664003800 0.1838107770 0.4197368270
H 1.2288818230 -0.3298830140 1.1862597110
H 1.2280355580 0.6972081300 -0.3476098930
C -0.6659735770 0.1829734280 0.4196119100
H -1.2279217120 -0.3314988990 1.1861033440
H -1.2281842710 0.6956457460 -0.3477480810
C -2.5328707560 -0.4898762450 5.6253997540
H -2.5623641990 -1.1028970280 4.7242098750
H -2.5690047050 -1.1640968640 6.4810167680
H -3.4340421130 0.1211401830 5.6426456990
C -1.2714342700 0.3627991710 5.6612176910
H -1.2718401350 0.9828927420 6.5606116350
H -1.2630459230 1.0497074870 4.8121572790
C -0.0001600090 -0.4747584000 5.6342744840
H -0.0003140640 -1.1614311070 6.4861064980
H -0.0000189420 -1.1023362370 4.7376319920
C 1.2710603980 0.3628280290 5.6616790210
H 1.2713334000 0.9826387800 6.5611644310
H 1.2628655730 1.0499026790 4.8127713940
C 2.5325117780 -0.4898964830 5.6258548370
H 2.5621352490 -1.1027529820 4.7245456590
H 3.4336898880 0.1210396850 5.6434328760
H 2.5684301390 -1.1643525640 6.4813605480
