23
0 1
C 0.6664003800 0.1838107770 0.4197368270
H 1.2288818230 -0.3298830140 1.1862597110
H 1.2280355580 0.6972081300 -0.3476098930
C -0.6659735770 0.1829734280 0.4196119100
H -1.2279217120 -0.3314988990 1.1861033440
H -1.2281842710 0.6956457460 -0.3477480810
C -2.5329709960 -0.5769199400 6.9643483820
H -2.5624644390 -1.1899407230 6.0631585030
H -2.5691049450 -1.2511405590 7.8199653960
H -3.4341423530 0.0340964880 6.9815943270
C -1.2715345100 0.2757554760 7.0001663190
H -1.2719403750 0.8958490470 7.8995602630
H -1.2631461630 0.9626637920 6.1511059070
C -0.0002602490 -0.5618020950 6.9732231120
H -0.0004143040 -1.2484748020 7.8250551260
H -0.0001191820 -1.1893799320 6.0765806200
C 1.2709601580 0.2757843340 7.0006276490
H 1.2712331600 0.8955950850 7.9001130590
H 1.2627653330 0.9628589840 6.1517200220
C 2.5324115380 -0.5769401780 6.9648034650
H 2.5620350090 -1.1897966770 6.0634942870
H 3.4335896480 0.0339959900 6.9823815040
H 2.5683298990 -1.2513962590 7.8203091760
