21
0 1
C -0.6061893550 0.0558740630 0.5890049050
H -1.6680366690 0.0557762390 0.5890116190
C 0.6058487270 0.0555408670 0.5892662430
H 1.6676781720 0.0548632830 0.5897279420
C -2.5304132050 -0.3444052930 4.0559494010
H -2.5387798340 -1.0063588280 3.1895388120
H -2.5823315350 -0.9706745080 4.9465401750
H -3.4328278270 0.2644987650 4.0231877760
C -1.2698810790 0.5101954250 4.0670186710
H -1.2865327460 1.1831946480 4.9274277910
H -1.2446140910 1.1444114340 3.1782225620
C 0.0000375410 -0.3281355770 4.1074740050
H 0.0000402730 -0.9459252240 5.0105354030
H 0.0001046350 -1.0164347330 3.2582328160
C 1.2699360990 0.5102404940 4.0671055460
H 1.2865639240 1.1832076080 4.9275268500
H 1.2447911810 1.1444128110 3.1783043530
C 2.5304585920 -0.3443960860 4.0561591320
H 2.5388383580 -1.0063788400 3.1897800560
H 3.4328373620 0.2645352550 4.0234327690
H 2.5822758220 -0.9706108230 4.9467926770
