21
0 1
C -0.6061893550 0.0558740630 0.5890049050
H -1.6680366690 0.0557762390 0.5890116190
C 0.6058487270 0.0555408670 0.5892662430
H 1.6676781720 0.0548632830 0.5897279420
C -2.5303944930 -0.3505452940 4.3831348230
H -2.5387611220 -1.0124988290 3.5167242340
H -2.5823128230 -0.9768145090 5.2737255970
H -3.4328091150 0.2583587640 4.3503731980
C -1.2698623670 0.5040554240 4.3942040930
H -1.2865140340 1.1770546470 5.2546132130
H -1.2445953790 1.1382714330 3.5054079840
C 0.0000562530 -0.3342755780 4.4346594270
H 0.0000589850 -0.9520652250 5.3377208250
H 0.0001233470 -1.0225747340 3.5854182380
C 1.2699548110 0.5041004930 4.3942909680
H 1.2865826360 1.1770676070 5.2547122720
H 1.2448098930 1.1382728100 3.5054897750
C 2.5304773040 -0.3505360870 4.3833445540
H 2.5388570700 -1.0125188410 3.5169654780
H 3.4328560740 0.2583952540 4.3506181910
H 2.5822945340 -0.9767508240 5.2739780990
