21
0 1
C -0.6061893550 0.0558740630 0.5890049050
H -1.6680366690 0.0557762390 0.5890116190
C 0.6058487270 0.0555408670 0.5892662430
H 1.6676781720 0.0548632830 0.5897279420
C -2.5303852610 -0.3535745310 4.5445554090
H -2.5387518900 -1.0155280660 3.6781448200
H -2.5823035910 -0.9798437460 5.4351461830
H -3.4327998830 0.2553295270 4.5117937840
C -1.2698531350 0.5010261870 4.5556246790
H -1.2865048020 1.1740254100 5.4160337990
H -1.2445861470 1.1352421960 3.6668285700
C 0.0000654850 -0.3373048150 4.5960800130
H 0.0000682170 -0.9550944620 5.4991414110
H 0.0001325790 -1.0256039710 3.7468388240
C 1.2699640430 0.5010712560 4.5557115540
H 1.2865918680 1.1740383700 5.4161328580
H 1.2448191250 1.1352435730 3.6669103610
C 2.5304865360 -0.3535653240 4.5447651400
H 2.5388663020 -1.0155480780 3.6783860640
H 3.4328653060 0.2553660170 4.5120387770
H 2.5823037660 -0.9797800610 5.4353986850
