21
0 1
C -0.6061893550 0.0558740630 0.5890049050
H -1.6680366690 0.0557762390 0.5890116190
C 0.6058487270 0.0555408670 0.5892662430
H 1.6676781720 0.0548632830 0.5897279420
C -2.5303131740 -0.3772281620 5.8049988620
H -2.5386798030 -1.0391816970 4.9385882730
H -2.5822315040 -1.0034973770 6.6955896360
H -3.4327277960 0.2316758960 5.7722372370
C -1.2697810480 0.4773725560 5.8160681320
H -1.2864327150 1.1503717790 6.6764772520
H -1.2445140600 1.1115885650 4.9272720230
C 0.0001375720 -0.3609584460 5.8565234660
H 0.0001403040 -0.9787480930 6.7595848640
H 0.0002046660 -1.0492576020 5.0072822770
C 1.2700361300 0.4774176250 5.8161550070
H 1.2866639550 1.1503847390 6.6765763110
H 1.2448912120 1.1115899420 4.9273538140
C 2.5305586230 -0.3772189550 5.8052085930
H 2.5389383890 -1.0392017090 4.9388295170
H 3.4329373930 0.2317123860 5.7724822300
H 2.5823758530 -1.0034336920 6.6958421380
