29
0 1
C 1.3721909310 1.0124773630 0.9708246830
H 0.9521762330 2.0140495480 1.0331172470
H 1.9474216970 0.9265155960 0.0507177560
H 2.0517020840 0.8518251680 1.8029524670
C 0.3267370600 -0.0776472710 0.9881987640
O 0.6188212760 -1.2524813040 1.1712812570
N -0.9500288430 0.3448867970 0.7739149140
H -1.1046715610 1.3220254950 0.6061121590
C -2.0598543990 -0.5773689490 0.6801534890
H -1.6693560160 -1.5667960050 0.8971842510
H -2.8345917590 -0.3313803250 1.4036613940
H -2.4909705030 -0.5789248290 -0.3199392590
C 2.6863579720 0.4807286080 5.1543141540
H 2.8031972560 1.2351445030 4.3755693300
H 2.6002476010 1.0056149310 6.1059702110
H 3.5984494140 -0.1135133000 5.1811221630
C 1.4580857470 -0.3826589030 4.8967626040
H 1.3635163940 -1.1281129050 5.6898134390
H 1.5745058770 -0.9361232310 3.9629188010
C 0.1755479010 0.4359550450 4.8314612530
H 0.0639775820 1.0136899280 5.7545448970
H 0.2547820490 1.1687699530 4.0218086000
C -1.0688083880 -0.4143801890 4.6145813550
H -1.1596103530 -1.1288666760 5.4359985800
H -0.9410013820 -1.0033179190 3.7043669020
C -2.3356468830 0.4259113170 4.5244666290
H -2.2687336470 1.1329622990 3.6966973960
H -3.2209891000 -0.1901061740 4.3706337220
H -2.4860029260 1.0021224070 5.4376862230
