29
0 1
C 1.3721909310 1.0124773630 0.9708246830
H 0.9521762330 2.0140495480 1.0331172470
H 1.9474216970 0.9265155960 0.0507177560
H 2.0517020840 0.8518251680 1.8029524670
C 0.3267370600 -0.0776472710 0.9881987640
O 0.6188212760 -1.2524813040 1.1712812570
N -0.9500288430 0.3448867970 0.7739149140
H -1.1046715610 1.3220254950 0.6061121590
C -2.0598543990 -0.5773689490 0.6801534890
H -1.6693560160 -1.5667960050 0.8971842510
H -2.8345917590 -0.3313803250 1.4036613940
H -2.4909705030 -0.5789248290 -0.3199392590
C 2.8975185410 0.6285286440 7.6279006530
H 3.0143578250 1.3829445390 6.8491558290
H 2.8114081700 1.1534149670 8.5795567100
H 3.8096099830 0.0342867360 7.6547086620
C 1.6692463160 -0.2348588670 7.3703491030
H 1.5746769630 -0.9803128690 8.1633999380
H 1.7856664460 -0.7883231950 6.4365053000
C 0.3867084700 0.5837550810 7.3050477520
H 0.2751381510 1.1614899640 8.2281313960
H 0.4659426180 1.3165699890 6.4953950990
C -0.8576478190 -0.2665801530 7.0881678540
H -0.9484497840 -0.9810666400 7.9095850790
H -0.7298408130 -0.8555178830 6.1779534010
C -2.1244863140 0.5737113530 6.9980531280
H -2.0575730780 1.2807623350 6.1702838950
H -3.0098285310 -0.0423061380 6.8442202210
H -2.2748423570 1.1499224430 7.9112727220
