12
0 1
C 0.1532040420 0.1457074320 4.0439198070
H 0.2753304490 0.3711908880 2.9934933730
C -0.9378775260 -0.6091911790 4.4712560760
H -1.6583820550 -0.9657054360 3.7475616550
C -1.0985775070 -0.9033165020 5.8242061430
H -1.9456850940 -1.4892850660 6.1544536840
C -0.1666949460 -0.4422631220 6.7527002210
H -0.2905884420 -0.6702292830 7.8027077200
C 0.9248901530 0.3128389320 6.3274599370
H 1.6480092380 0.6706721120 7.0478425910
C 1.0836940470 0.6063239510 4.9739686200
H 1.9309519650 1.1923987460 4.6439212950
