24
0 1
C 0.7291886660 1.1131012170 0.3267282530
H 1.3032158970 2.0142223360 0.1591602700
C 1.3750873690 -0.1193663520 0.4127769460
H 2.4505147360 -0.1746239980 0.3133072030
C 0.6350398070 -1.2805533860 0.6293854090
H 1.1363344790 -2.2360174670 0.7002171570
C -0.7509856290 -1.2096542960 0.7578903380
H -1.3245258980 -2.1114128270 0.9241989120
C -1.3970344300 0.0226708140 0.6730896330
H -2.4724253690 0.0784882600 0.7739979910
C -0.6568973140 1.1842962160 0.4583385850
H -1.1578284450 2.1405871310 0.3950960820
C 0.1715547500 0.1725958430 4.2010041770
H 0.2936811570 0.3980792990 3.1505777430
C -0.9195268180 -0.5823027680 4.6283404460
H -1.6400313470 -0.9388170250 3.9046460250
C -1.0802267990 -0.8764280910 5.9812905130
H -1.9273343860 -1.4623966550 6.3115380540
C -0.1483442380 -0.4153747110 6.9097845910
H -0.2722377340 -0.6433408720 7.9597920900
C 0.9432408610 0.3397273430 6.4845443070
H 1.6663599460 0.6975605230 7.2049269610
C 1.1020447550 0.6332123620 5.1310529900
H 1.9493026730 1.2192871570 4.8010056650
