11
0 1
N 1.3227627220 -0.0103759770 1.0191837280
C 0.6512860100 -1.1489920280 0.7968011920
H 1.2004184210 -2.0655280840 0.9736728220
C -0.6726813030 -1.1947117240 0.3666569280
H -1.1571936210 -2.1473214110 0.2064640710
C -1.3471967550 0.0031339880 0.1521440110
H -2.3753565260 0.0084054220 -0.1822930170
C -0.6645579670 1.1940906240 0.3790019860
H -1.1426263330 2.1515576460 0.2287205060
C 0.6588957640 1.1349785440 0.8088598680
H 1.2141027170 2.0459104510 0.9954383090
