22
0 1
N 1.3227627220 -0.0103759770 1.0191837280
C 0.6512860100 -1.1489920280 0.7968011920
H 1.2004184210 -2.0655280840 0.9736728220
C -0.6726813030 -1.1947117240 0.3666569280
H -1.1571936210 -2.1473214110 0.2064640710
C -1.3471967550 0.0031339880 0.1521440110
H -2.3753565260 0.0084054220 -0.1822930170
C -0.6645579670 1.1940906240 0.3790019860
H -1.1426263330 2.1515576460 0.2287205060
C 0.6588957640 1.1349785440 0.8088598680
H 1.2141027170 2.0459104510 0.9954383090
N 0.4558592060 0.0014149360 6.7615183710
C 1.3265272230 -0.0041978550 5.7421053380
H 2.3743837970 -0.0029493300 6.0164081300
C 0.9531414870 -0.0112656160 4.4002772660
H 1.7006021500 -0.0154296350 3.6191776180
C -0.4029070700 -0.0126796800 4.0878618000
H -0.7326357490 -0.0181351570 3.0575803520
C -1.3210103340 -0.0069645940 5.1330314140
H -2.3854603700 -0.0078139840 4.9442956280
C -0.8454065300 -0.0000469390 6.4419902640
H -1.5375901930 0.0045361900 7.2751814690
