11
0 1
N 0.4558592060 0.0014149360 6.7615183710
C 1.3265272230 -0.0041978550 5.7421053380
H 2.3743837970 -0.0029493300 6.0164081300
C 0.9531414870 -0.0112656160 4.4002772660
H 1.7006021500 -0.0154296350 3.6191776180
C -0.4029070700 -0.0126796800 4.0878618000
H -0.7326357490 -0.0181351570 3.0575803520
C -1.3210103340 -0.0069645940 5.1330314140
H -2.3854603700 -0.0078139840 4.9442956280
C -0.8454065300 -0.0000469390 6.4419902640
H -1.5375901930 0.0045361900 7.2751814690
