22
0 1
N 1.3227627220 -0.0103759770 1.0191837280
C 0.6512860100 -1.1489920280 0.7968011920
H 1.2004184210 -2.0655280840 0.9736728220
C -0.6726813030 -1.1947117240 0.3666569280
H -1.1571936210 -2.1473214110 0.2064640710
C -1.3471967550 0.0031339880 0.1521440110
H -2.3753565260 0.0084054220 -0.1822930170
C -0.6645579670 1.1940906240 0.3790019860
H -1.1426263330 2.1515576460 0.2287205060
C 0.6588957640 1.1349785440 0.8088598680
H 1.2141027170 2.0459104510 0.9954383090
N 0.3746464620 -0.0001953850 7.0363876140
C 1.2453144790 -0.0058081760 6.0169745810
H 2.2931710530 -0.0045596510 6.2912773730
C 0.8719287430 -0.0128759370 4.6751465090
H 1.6193894060 -0.0170399560 3.8940468610
C -0.4841198140 -0.0142900010 4.3627310430
H -0.8138484930 -0.0197454780 3.3324495950
C -1.4022230780 -0.0085749150 5.4079006570
H -2.4666731140 -0.0094243050 5.2191648710
C -0.9266192740 -0.0016572600 6.7168595070
H -1.6188029370 0.0029258690 7.5500507120
