11
0 1
N 0.0235389800 0.3588231150 6.7410952220
C 0.1782228000 1.2967847200 5.7962183420
H 0.3199936270 2.3093107250 6.1541200680
C 0.1640135330 1.0294949550 4.4297189040
H 0.2942535910 1.8305207530 3.7158334920
C -0.0203247780 -0.2821347300 4.0044284730
H -0.0368912310 -0.5252533970 2.9510805400
C -0.1821737040 -1.2671690630 4.9732875620
H -0.3287167250 -2.3023800310 4.6985160480
C -0.1529712310 -0.8998359620 6.3163770680
H -0.2765673650 -1.6473499310 7.0904780650
