12
0 1
C 0.8450772020 1.0579186900 0.6994549000
H 1.5064060050 1.9032217800 0.8333823510
C 1.3755093140 -0.2174553390 0.5111609340
H 2.4471836680 -0.3614725790 0.5028523240
C 0.5240681010 -1.3070443170 0.3331923250
H 0.9357272600 -2.2960264070 0.1849230480
C -0.8577157350 -1.1214634080 0.3463840850
H -1.5183811900 -1.9664580550 0.2083632510
C -1.3880456960 0.1536343830 0.5376134940
H -2.4597175250 0.2974158690 0.5500322920
C -0.5366131490 1.2434222060 0.7127388190
H -0.9489242650 2.2328062770 0.8573663460
