23
0 1
C 0.8450772020 1.0579186900 0.6994549000
H 1.5064060050 1.9032217800 0.8333823510
C 1.3755093140 -0.2174553390 0.5111609340
H 2.4471836680 -0.3614725790 0.5028523240
C 0.5240681010 -1.3070443170 0.3331923250
H 0.9357272600 -2.2960264070 0.1849230480
C -0.8577157350 -1.1214634080 0.3463840850
H -1.5183811900 -1.9664580550 0.2083632510
C -1.3880456960 0.1536343830 0.5376134940
H -2.4597175250 0.2974158690 0.5500322920
C -0.5366131490 1.2434222060 0.7127388190
H -0.9489242650 2.2328062770 0.8573663460
N -0.0133370200 -0.2357139840 9.6662615560
C 0.1413468000 0.7022476210 8.7213846760
H 0.2831176270 1.7147736260 9.0792864020
C 0.1271375330 0.4349578560 7.3548852380
H 0.2573775910 1.2359836540 6.6409998260
C -0.0572007780 -0.8766718290 6.9295948070
H -0.0737672310 -1.1197904960 5.8762468740
C -0.2190497040 -1.8617061620 7.8984538960
H -0.3655927250 -2.8969171300 7.6236823820
C -0.1898472310 -1.4943730610 9.2415434020
H -0.3134433650 -2.2418870300 10.0156443990
