8
0 1
C -0.6017299560 -0.0285701180 0.3849349160
H -1.6637354300 -0.0285265660 0.3790143110
C 0.6101091740 -0.0286636440 0.3881637880
H 1.6721354440 -0.0287930820 0.3879675200
C -0.0078533200 0.1060975860 4.3057203610
H -0.0044589400 0.0723625340 3.2424234790
C -0.0117897430 0.1443876090 5.5171857440
H -0.0150559750 0.1777634900 6.5780971620
