8
0 1
C -0.1183707170 0.5313982170 4.3801768940
O -0.5865603110 1.5808448400 4.0009165090
O 0.2848418610 -0.4461650490 3.5408916340
H 0.1161370400 -0.1202514640 2.6394863800
C 0.0915835830 0.1344111310 5.8115826850
H -0.2183825680 0.9437477140 6.4615715720
H -0.4844971450 -0.7622128430 6.0285337990
H 1.1400810040 -0.1017209550 5.9766012690
