9
0 1
C 0.0782926210 0.4860014760 4.8252482890
O 0.3247819700 1.5294277200 4.2380090060
N -0.2257546280 -0.6690050610 4.1740809440
H -0.2005543160 -0.6760203910 3.1674443370
H -0.3815311130 -1.5244973780 4.6697826550
C 0.1011373210 0.3911096460 6.3336657610
H 1.1328511220 0.4753219290 6.6687395550
H -0.3207665900 -0.5355333500 6.7146914330
H -0.4483273450 1.2349559560 6.7404362710
