19
0 1
C 0.6923152340 1.0882920400 0.3248412410
H 1.2819488040 1.9919467800 0.2525157840
C 1.3181872190 -0.1568700790 0.2868960730
H 2.3931433720 -0.2194763580 0.1884068120
C 0.5580184130 -1.3219504490 0.3813998630
H 1.0439192240 -2.2875738020 0.3576154210
C -0.8275523610 -1.2414218690 0.5116850150
H -1.4167009500 -2.1452515210 0.5853392720
C -1.4534113830 0.0036714490 0.5483810720
H -2.5282325460 0.0657027160 0.6498425370
C -0.6934609430 1.1684010840 0.4562290700
H -1.1787353380 2.1344098900 0.4857268450
N 0.2883824950 -0.2103927100 3.7232622870
H 0.4230008520 -0.1663522080 2.7201909300
H 0.4298750660 0.7347540260 4.0557345640
C -1.0877169800 -0.6167761190 4.0006980790
H -1.2455935460 -0.6453231260 5.0772536150
H -1.8590191670 0.0236046700 3.5605790810
H -1.2424089610 -1.6263439210 3.6250763790
