7
0 1
N 0.2746452620 -0.2231054900 3.8631800910
H 0.4092636190 -0.1790649880 2.8601087340
H 0.4161378330 0.7220412460 4.1956523680
C -1.1014542130 -0.6294888990 4.1406158830
H -1.2593307790 -0.6580359060 5.2171714190
H -1.8727564000 0.0108918900 3.7004968850
H -1.2561461940 -1.6390567010 3.7649941830
