19
0 1
C 0.6923152340 1.0882920400 0.3248412410
H 1.2819488040 1.9919467800 0.2525157840
C 1.3181872190 -0.1568700790 0.2868960730
H 2.3931433720 -0.2194763580 0.1884068120
C 0.5580184130 -1.3219504490 0.3813998630
H 1.0439192240 -2.2875738020 0.3576154210
C -0.8275523610 -1.2414218690 0.5116850150
H -1.4167009500 -2.1452515210 0.5853392720
C -1.4534113830 0.0036714490 0.5483810720
H -2.5282325460 0.0657027160 0.6498425370
C -0.6934609430 1.1684010840 0.4562290700
H -1.1787353380 2.1344098900 0.4857268450
N 0.2599194870 -0.2367330910 4.0131664850
H 0.3945378440 -0.1926925890 3.0100951280
H 0.4014120580 0.7084136450 4.3456387620
C -1.1161799880 -0.6431165000 4.2906022770
H -1.2740565540 -0.6716635070 5.3671578130
H -1.8874821750 -0.0027357110 3.8504832790
H -1.2708719690 -1.6526843020 3.9149805770
