19
0 1
C 0.6923152340 1.0882920400 0.3248412410
H 1.2819488040 1.9919467800 0.2525157840
C 1.3181872190 -0.1568700790 0.2868960730
H 2.3931433720 -0.2194763580 0.1884068120
C 0.5580184130 -1.3219504490 0.3813998630
H 1.0439192240 -2.2875738020 0.3576154210
C -0.8275523610 -1.2414218690 0.5116850150
H -1.4167009500 -2.1452515210 0.5853392720
C -1.4534113830 0.0036714490 0.5483810720
H -2.5282325460 0.0657027160 0.6498425370
C -0.6934609430 1.1684010840 0.4562290700
H -1.1787353380 2.1344098900 0.4857268450
N 0.2449165130 -0.2506172180 4.1659762360
H 0.3795348700 -0.2065767160 3.1629048790
H 0.3864090840 0.6945295180 4.4984485130
C -1.1311829620 -0.6570006270 4.4434120280
H -1.2890595280 -0.6855476340 5.5199675640
H -1.9024851490 -0.0166198380 4.0032930300
H -1.2858749430 -1.6665684290 4.0677903280
