19
0 1
C 0.6923152340 1.0882920400 0.3248412410
H 1.2819488040 1.9919467800 0.2525157840
C 1.3181872190 -0.1568700790 0.2868960730
H 2.3931433720 -0.2194763580 0.1884068120
C 0.5580184130 -1.3219504490 0.3813998630
H 1.0439192240 -2.2875738020 0.3576154210
C -0.8275523610 -1.2414218690 0.5116850150
H -1.4167009500 -2.1452515210 0.5853392720
C -1.4534113830 0.0036714490 0.5483810720
H -2.5282325460 0.0657027160 0.6498425370
C -0.6934609430 1.1684010840 0.4562290700
H -1.1787353380 2.1344098900 0.4857268450
N 0.2008676060 -0.2913811800 4.6146274480
H 0.3354859630 -0.2473406780 3.6115560910
H 0.3423601770 0.6537655560 4.9470997250
C -1.1752318690 -0.6977645890 4.8920632400
H -1.3331084350 -0.7263115960 5.9686187760
H -1.9465340560 -0.0573838000 4.4519442420
H -1.3299238500 -1.7073323910 4.5164415400
