19
0 1
C 0.6923152340 1.0882920400 0.3248412410
H 1.2819488040 1.9919467800 0.2525157840
C 1.3181872190 -0.1568700790 0.2868960730
H 2.3931433720 -0.2194763580 0.1884068120
C 0.5580184130 -1.3219504490 0.3813998630
H 1.0439192240 -2.2875738020 0.3576154210
C -0.8275523610 -1.2414218690 0.5116850150
H -1.4167009500 -2.1452515210 0.5853392720
C -1.4534113830 0.0036714490 0.5483810720
H -2.5282325460 0.0657027160 0.6498425370
C -0.6934609430 1.1684010840 0.4562290700
H -1.1787353380 2.1344098900 0.4857268450
N -0.0168192790 -0.4928340740 6.8318330940
H 0.1177990780 -0.4487935720 5.8287617370
H 0.1246732920 0.4523126620 7.1643053710
C -1.3929187540 -0.8992174830 7.1092688860
H -1.5507953200 -0.9277644900 8.1858244220
H -2.1642209410 -0.2588366940 6.6691498880
H -1.5476107350 -1.9087852850 6.7336471860
