24
0 1
C 0.4087798940 1.0510250170 0.3755360550
H 1.0119387520 1.9485456990 0.3680778790
C 1.0191678800 -0.1997696270 0.2890534310
H 2.0955713020 -0.2718333260 0.2171909850
C 0.2417226350 -1.3568827000 0.2966899480
H 0.7152163330 -2.3265886940 0.2280721770
C -1.1461797070 -1.2642575680 0.3939019780
H -1.7491818650 -2.1619266340 0.3994097960
C -1.7572778050 -0.0139602300 0.4829517310
H -2.8335137750 0.0582436770 0.5590391760
C -0.9796860230 1.1442065270 0.4722837040
H -1.4540514180 2.1140008780 0.5371358880
C 0.2424552900 1.9494116340 4.0858800600
H -0.1156898090 2.1151424770 3.0725872900
H 1.2670388510 2.3061212000 4.1673215690
H -0.3616415830 2.5230474630 4.7842327790
C 0.2056089560 0.4962485220 4.5015888870
O 0.4902373610 0.1438871050 5.6401269500
N -0.1667863140 -0.3694682220 3.5223477950
H -0.3279142140 -0.0114774810 2.5962794550
C -0.2035791870 -1.7963474510 3.7404348550
H -0.1254916170 -1.9632549870 4.8104310860
H -1.1388197230 -2.2146980270 3.3736967430
H 0.6255472900 -2.3002202150 3.2430974230
