12
0 1
C 0.2453554410 1.9561397180 4.2422730220
H -0.1127896580 2.1218705610 3.2289802520
H 1.2699390020 2.3128492840 4.3237145310
H -0.3587414320 2.5297755470 4.9406257410
C 0.2085091070 0.5029766060 4.6579818490
O 0.4931375120 0.1506151890 5.7965199120
N -0.1638861630 -0.3627401380 3.6787407570
H -0.3250140630 -0.0047493970 2.7526724170
C -0.2006790360 -1.7896193670 3.8968278170
H -0.1225914660 -1.9565269030 4.9668240480
H -1.1359195720 -2.2079699430 3.5300897050
H 0.6284474410 -2.2934921310 3.3994903850
