24
0 1
C 0.4087798940 1.0510250170 0.3755360550
H 1.0119387520 1.9485456990 0.3680778790
C 1.0191678800 -0.1997696270 0.2890534310
H 2.0955713020 -0.2718333260 0.2171909850
C 0.2417226350 -1.3568827000 0.2966899480
H 0.7152163330 -2.3265886940 0.2280721770
C -1.1461797070 -1.2642575680 0.3939019780
H -1.7491818650 -2.1619266340 0.3994097960
C -1.7572778050 -0.0139602300 0.4829517310
H -2.8335137750 0.0582436770 0.5590391760
C -0.9796860230 1.1442065270 0.4722837040
H -1.4540514180 2.1140008780 0.5371358880
C 0.2592044320 1.9882681030 4.9890908640
H -0.0989406670 2.1539989460 3.9757980940
H 1.2837879930 2.3449776690 5.0705323730
H -0.3448924410 2.5619039320 5.6874435830
C 0.2223580980 0.5351049910 5.4047996910
O 0.5069865030 0.1827435740 6.5433377540
N -0.1500371720 -0.3306117530 4.4255585990
H -0.3111650720 0.0273789880 3.4994902590
C -0.1868300450 -1.7574909820 4.6436456590
H -0.1087424750 -1.9243985180 5.7136418900
H -1.1220705810 -2.1758415580 4.2769075470
H 0.6422964320 -2.2613637460 4.1463082270
