24
0 1
C 0.4087798940 1.0510250170 0.3755360550
H 1.0119387520 1.9485456990 0.3680778790
C 1.0191678800 -0.1997696270 0.2890534310
H 2.0955713020 -0.2718333260 0.2171909850
C 0.2417226350 -1.3568827000 0.2966899480
H 0.7152163330 -2.3265886940 0.2280721770
C -1.1461797070 -1.2642575680 0.3939019780
H -1.7491818650 -2.1619266340 0.3994097960
C -1.7572778050 -0.0139602300 0.4829517310
H -2.8335137750 0.0582436770 0.5590391760
C -0.9796860230 1.1442065270 0.4722837040
H -1.4540514180 2.1140008780 0.5371358880
C 0.2724314190 2.0189534950 5.7023666220
H -0.0857136800 2.1846843380 4.6890738520
H 1.2970149800 2.3756630610 5.7838081310
H -0.3316654540 2.5925893240 6.4007193410
C 0.2355850850 0.5657903830 6.1180754490
O 0.5202134900 0.2134289660 7.2566135120
N -0.1368101850 -0.2999263610 5.1388343570
H -0.2979380850 0.0580643800 4.2127660170
C -0.1736030580 -1.7268055900 5.3569214170
H -0.0955154880 -1.8937131260 6.4269176480
H -1.1088435940 -2.1451561660 4.9901833050
H 0.6555234190 -2.2306783540 4.8595839850
