24
0 1
C 0.4087798940 1.0510250170 0.3755360550
H 1.0119387520 1.9485456990 0.3680778790
C 1.0191678800 -0.1997696270 0.2890534310
H 2.0955713020 -0.2718333260 0.2171909850
C 0.2417226350 -1.3568827000 0.2966899480
H 0.7152163330 -2.3265886940 0.2280721770
C -1.1461797070 -1.2642575680 0.3939019780
H -1.7491818650 -2.1619266340 0.3994097960
C -1.7572778050 -0.0139602300 0.4829517310
H -2.8335137750 0.0582436770 0.5590391760
C -0.9796860230 1.1442065270 0.4722837040
H -1.4540514180 2.1140008780 0.5371358880
C 0.2980632260 2.0784169270 7.0845821340
H -0.0600818730 2.2441477700 6.0712893640
H 1.3226467870 2.4351264930 7.1660236430
H -0.3060336470 2.6520527560 7.7829348530
C 0.2612168920 0.6252538150 7.5002909610
O 0.5458452970 0.2728923980 8.6388290240
N -0.1111783780 -0.2404629290 6.5210498690
H -0.2723062780 0.1175278120 5.5949815290
C -0.1479712510 -1.6673421580 6.7391369290
H -0.0698836810 -1.8342496940 7.8091331600
H -1.0832117870 -2.0856927340 6.3723988170
H 0.6811552260 -2.1712149220 6.2417994970
