11
0 1
N 2.5359829150 -0.9499556970 0.0425141680
C 3.7377617310 -1.5431319330 0.0445940080
H 3.7325378790 -2.6260943860 0.0664831740
C 4.9436979680 -0.8481733750 0.0205926280
H 5.8801362940 -1.3877085530 0.0236866360
C 4.9113803600 0.5421310820 -0.0071540820
H 5.8267552970 1.1173821330 -0.0263355920
C 3.6717000290 1.1724172130 -0.0096311880
H 3.5919272980 2.2499757910 -0.0307197520
C 2.5177864580 0.3924075920 0.0155624800
H 1.5378760580 0.8560701740 0.0138996350
