22
0 1
N -0.9412112410 0.7900413570 0.0117189070
C -0.9227552410 -0.5523781430 0.0353787530
H 0.0572405120 -1.0155880010 0.0513549110
C -2.0765190700 -1.3330181280 0.0392903530
H -1.9965289490 -2.4105857260 0.0588772020
C -3.3163129370 -0.7033395470 0.0175990460
H -4.2315748870 -1.2790842890 0.0197937680
C -3.3488952800 0.6870188060 -0.0070859560
H -4.2854441420 1.2261045470 -0.0246589940
C -2.1431038210 1.3826335630 -0.0088900490
H -2.1380997440 2.4656525850 -0.0277829730
N 3.3606995690 -0.9280543560 0.0414062990
C 4.5624783850 -1.5212305920 0.0434861390
H 4.5572545330 -2.6041930450 0.0653753050
C 5.7684146220 -0.8262720340 0.0194847590
H 6.7048529480 -1.3658072120 0.0225787670
C 5.7360970140 0.5640324230 -0.0082619510
H 6.6514719510 1.1392834740 -0.0274434610
C 4.4964166830 1.1943185540 -0.0107390570
H 4.4166439520 2.2718771320 -0.0318276210
C 3.3425031120 0.4143089330 0.0144546110
H 2.3625927120 0.8779715150 0.0127917660
