8
0 1
C 2.8615240450 -0.6534647490 0.4747804020
O 2.6073449870 0.3026374980 -0.2240573460
O 1.9136194260 -1.4278049760 1.0424670070
H 1.0526200380 -1.0605059890 0.7746958650
C 4.2371591980 -1.1349145790 0.8249313100
H 4.9755450110 -0.4973644910 0.3540809860
H 4.3633697140 -1.1230598530 1.9049666340
H 4.3594363410 -2.1627591250 0.4916969800
