12
0 1
C -0.6105625660 0.2275030960 -0.1706020700
H 0.1073850580 0.8614360270 -0.6342092390
C -1.3862757280 -0.5253255040 0.3799735270
H -2.0807032380 -1.1740673930 0.8543793690
C 2.9659509130 -0.6998778010 0.5088933830
O 2.7117718550 0.2562244460 -0.1899443650
O 2.0180462940 -1.4742180280 1.0765799880
H 1.1570469060 -1.1069190410 0.8088088460
C 4.3415860660 -1.1813276310 0.8590442910
H 5.0799718790 -0.5437775430 0.3881939670
H 4.4677965820 -1.1694729050 1.9390796150
H 4.4638632090 -2.2091721770 0.5258099610
