12
0 1
C -0.6105625660 0.2275030960 -0.1706020700
H 0.1073850580 0.8614360270 -0.6342092390
C -1.3862757280 -0.5253255040 0.3799735270
H -2.0807032380 -1.1740673930 0.8543793690
C 3.3805090230 -0.8841302590 0.6443165080
O 3.1263299650 0.0719719880 -0.0545212400
O 2.4326044040 -1.6584704860 1.2120031130
H 1.5716050160 -1.2911714990 0.9442319710
C 4.7561441760 -1.3655800890 0.9944674160
H 5.4945299890 -0.7280300010 0.5236170920
H 4.8823546920 -1.3537253630 2.0745027400
H 4.8784213190 -2.3934246350 0.6612330860
