25
0 1
C -2.2753449820 -0.1350749390 0.8313338700
H -2.4907177630 -0.7279266860 -0.0575663510
H -2.2263238180 -0.8184464080 1.6788234070
H -3.1120256640 0.5449434190 0.9874000790
C -0.9616981240 0.6192778910 0.6693992010
H -0.7886992020 1.2504318090 1.5447026610
H -1.0261768750 1.2954452400 -0.1864583820
C 0.2265021740 -0.3147103140 0.4799857940
H 0.3094443880 -0.9751391150 1.3480379350
H 0.0391505600 -0.9659987530 -0.3787898330
C 1.5430016780 0.4211745210 0.2689995050
H 1.7116386280 1.1077717690 1.1024465390
H 1.4660946570 1.0437433120 -0.6252935820
C 2.7275763250 -0.5268609080 0.1374593110
H 2.5887415530 -1.2032139130 -0.7057573400
H 3.6615010040 0.0116930840 -0.0159686280
H 2.8351940720 -1.1374099420 1.0340751210
C -0.7540806810 -0.3580383410 5.5065505380
O -1.1766946210 -1.4732185880 5.3094039590
O -1.5677730390 0.7009271770 5.7391400180
H -2.4685351480 0.3465466390 5.6986042780
C 0.6861863820 0.0516277400 5.5237559210
H 1.3120094470 -0.8185532050 5.3656007620
H 0.8622237960 0.7859013740 4.7406313410
H 0.9234976290 0.5209286940 6.4755583120
