9
0 1
C 0.0435758020 0.2042653530 4.1829921360
O 0.0704880690 1.3893388340 3.8911509500
N 1.1761560740 -0.5476122940 4.2858120810
H 2.0470963270 -0.1250317750 4.0171498260
H 1.1372181100 -1.5394989580 4.4172350050
C -1.2466451780 -0.5346721350 4.4474459650
H -1.0993951740 -1.4953934950 4.9345703310
H -1.7528727030 -0.6929810650 3.4966326180
H -1.8845891260 0.0925642960 5.0627178180
