20
0 1
C 0.6067849590 1.3304218480 0.3164345080
H 1.2464984570 2.2022643430 0.3303523110
C 1.1180846570 0.0872488620 0.6851165220
H 2.1500575270 -0.0038867830 0.9937582390
C 0.2929022890 -1.0360873680 0.6691072670
H 0.6884968590 -2.0009614860 0.9553779720
C -1.0428317360 -0.9167111230 0.2881896370
H -1.6827095600 -1.7884882470 0.2793490280
C -1.5535883790 0.3273489870 -0.0799431710
H -2.5892349480 0.4202890810 -0.3773461950
C -0.7280416370 1.4508431560 -0.0668483380
H -1.1236237920 2.4156586500 -0.3538614340
C 0.4182206070 -0.2705543990 4.0317470380
O 1.6137132810 -0.1066036530 4.1082628150
O -0.1612810650 -1.4819593600 4.2311853950
H 0.5731697930 -2.0830678540 4.4242235100
C -0.6036636210 0.7733771180 3.7110658580
H -0.1253692010 1.7443234700 3.6642430870
H -1.0564637230 0.5401809300 2.7483578110
H -1.3885146350 0.7678406180 4.4635653380
