8
0 1
C 0.4182206070 -0.2705543990 4.0317470380
O 1.6137132810 -0.1066036530 4.1082628150
O -0.1612810650 -1.4819593600 4.2311853950
H 0.5731697930 -2.0830678540 4.4242235100
C -0.6036636210 0.7733771180 3.7110658580
H -0.1253692010 1.7443234700 3.6642430870
H -1.0564637230 0.5401809300 2.7483578110
H -1.3885146350 0.7678406180 4.4635653380
