18
0 1
C 1.6297148210 0.5030125210 0.2701118930
H 1.6415733790 1.4592379150 -0.2480828570
H 2.3153191890 -0.1835547040 -0.2175863490
H 1.9697456370 0.6493602410 1.2939810480
C 0.2618277580 -0.1328612220 0.3145622070
O 0.0992526550 -1.3096160220 0.6118399520
N -0.7735022530 0.7025121430 0.0220759000
H -0.5690113760 1.6665567660 -0.1658143390
C -2.1500121390 0.2659686530 0.0950532810
H -2.1447376130 -0.8194074530 0.1009121030
H -2.6405431800 0.6158203520 1.0036044210
H -2.7077439350 0.6207511030 -0.7682605690
C -0.0005434880 0.5152034770 4.0751941980
H -0.0054250520 1.2573772840 4.8610767690
H -0.6490762410 0.6829721160 3.2265106340
C 0.7679668160 -0.5717584520 4.1450038110
H 1.4132717810 -0.7435840930 4.9951316750
H 0.7628548290 -1.3069585780 3.3526945320
