18
0 1
C 1.6297148210 0.5030125210 0.2701118930
H 1.6415733790 1.4592379150 -0.2480828570
H 2.3153191890 -0.1835547040 -0.2175863490
H 1.9697456370 0.6493602410 1.2939810480
C 0.2618277580 -0.1328612220 0.3145622070
O 0.0992526550 -1.3096160220 0.6118399520
N -0.7735022530 0.7025121430 0.0220759000
H -0.5690113760 1.6665567660 -0.1658143390
C -2.1500121390 0.2659686530 0.0950532810
H -2.1447376130 -0.8194074530 0.1009121030
H -2.6405431800 0.6158203520 1.0036044210
H -2.7077439350 0.6207511030 -0.7682605690
C 0.4067400340 0.4900383210 6.7684401170
H 0.4018584700 1.2322121280 7.5543226880
H -0.2417927190 0.6578069600 5.9197565530
C 1.1752503380 -0.5969236080 6.8382497300
H 1.8205553030 -0.7687492490 7.6883775940
H 1.1701383510 -1.3321237340 6.0459404510
