18
0 1
N -0.5410591980 0.0295762020 -0.2089950770
H 0.0555533510 -0.7861180990 -0.1302933460
H -1.4696694040 -0.2747084520 0.0531433820
C -0.0787992660 1.0423903650 0.7384588620
H -0.7201529360 1.9194137670 0.6719802620
H -0.0507581890 0.7238229300 1.7855145290
H 0.9264307240 1.3566037920 0.4619991880
N 2.4738931480 -1.2839838990 0.0394194250
C 2.8123294640 -0.4716398340 -0.9722930510
H 2.2696622450 -0.6161778150 -1.8976744100
C 3.7836587260 0.5204939610 -0.8719260470
H 4.0085111660 1.1448342480 -1.7247767400
C 4.4444987930 0.6900353990 0.3403383910
H 5.2023527380 1.4522727350 0.4567225200
C 4.1043658840 -0.1449271260 1.3994613440
H 4.5869542900 -0.0544648870 2.3621619980
C 3.1205843190 -1.1097161340 1.2002779630
H 2.8344999890 -1.7734637420 2.0068886200
