17
0 1
C 0.0000000000 1.5175410000 -1.0194640000
H -0.8829860000 1.0691610000 -1.4751980000
H 0.8829860000 1.0691610000 -1.4751980000
H 0.0000000000 2.5790360000 -1.2811670000
C 0.0000000000 1.3916770000 0.5071300000
H 0.8685480000 1.9467970000 0.8732170000
H -0.8685480000 1.9467970000 0.8732170000
C 0.0000000000 0.0000000000 1.2225370000
H -0.8639370000 0.0000000000 1.8915190000
H 0.8639370000 0.0000000000 1.8915190000
C 0.0000000000 -1.3916770000 0.5071300000
H -0.8685480000 -1.9467970000 0.8732170000
H 0.8685480000 -1.9467970000 0.8732170000
C 0.0000000000 -1.5175410000 -1.0194640000
H 0.8829860000 -1.0691610000 -1.4751980000
H 0.0000000000 -2.5790360000 -1.2811670000
H -0.8829860000 -1.0691610000 -1.4751980000
