17
0 1
C 1.8090630000 -0.6918350000 -0.3569140000
H 2.2798550000 -0.1588400000 -1.1876780000
H 1.1118440000 -1.4144260000 -0.7833180000
H 2.5885460000 -1.2496120000 0.1673930000
C 1.1095030000 0.2985450000 0.5778810000
H 0.7109180000 -0.2250800000 1.4511030000
H 1.8614920000 0.9946940000 0.9618210000
C 0.0044460000 1.1190100000 -0.1070530000
H 0.3747390000 1.4107740000 -1.0953670000
H -0.1201820000 2.0528490000 0.4477210000
C -1.4000220000 0.4623930000 -0.2585760000
H -1.7216930000 0.5477540000 -1.2999370000
H -2.1184200000 1.0505790000 0.3192810000
C -1.5496440000 -1.0006030000 0.1727670000
H -1.2812040000 -1.1456880000 1.2210270000
H -2.5897460000 -1.3135600000 0.0559440000
H -0.9362260000 -1.6745090000 -0.4266220000
