17
0 1
C 0.0000000000 2.5067340000 0.0051020000
H 0.1158300000 2.7738760000 1.0589790000
H -1.0709110000 2.4898950000 -0.2161000000
H 0.4561880000 3.2979840000 -0.5945000000
C 0.6330750000 1.1436700000 -0.2824500000
H 0.5326700000 0.9216180000 -1.3490780000
H 1.7074500000 1.2006550000 -0.0855240000
C 0.0000000000 0.0000000000 0.5470220000
H -0.7586300000 0.4284180000 1.2092410000
H 0.7586300000 -0.4284180000 1.2092410000
C -0.6330750000 -1.1436700000 -0.2824500000
H -0.5326700000 -0.9216180000 -1.3490780000
H -1.7074500000 -1.2006550000 -0.0855240000
C 0.0000000000 -2.5067340000 0.0051020000
H -0.1158300000 -2.7738760000 1.0589790000
H -0.4561880000 -3.2979840000 -0.5945000000
H 1.0709110000 -2.4898950000 -0.2161000000
