17
0 1
C 2.0679250000 0.5981200000 -0.1909390000
H 1.5423510000 1.4580960000 -0.6150860000
H 2.5630350000 0.0753920000 -1.0135810000
H 2.8410530000 0.9728860000 0.4837870000
C 1.0891340000 -0.3298520000 0.5307640000
H 1.6427090000 -1.1596450000 0.9782870000
H 0.6329730000 0.2116570000 1.3656250000
C -0.0197110000 -0.8795760000 -0.3956840000
H 0.0782850000 -1.9645780000 -0.4891050000
H 0.1144800000 -0.4729870000 -1.4051080000
C -1.4369460000 -0.5407670000 0.0794810000
H -1.5647930000 -0.8934740000 1.1088870000
H -2.1648370000 -1.0858120000 -0.5293540000
C -1.7398800000 0.9569130000 0.0047740000
H -1.6628010000 1.3128560000 -1.0264230000
H -2.7473600000 1.1789680000 0.3627410000
H -1.0382330000 1.5376180000 0.6089570000
