17
0 1
C -1.8164230000 0.7720230000 0.1639750000
H -1.1084920000 1.5970870000 0.2545490000
H -2.2004530000 0.5555880000 1.1645310000
H -2.6544560000 1.1134620000 -0.4482400000
C -1.1651460000 -0.4775020000 -0.4364260000
H -1.9277170000 -1.2581620000 -0.5094930000
H -0.8415760000 -0.2723690000 -1.4633500000
C 0.0305380000 -1.0119150000 0.3746900000
H 0.0431510000 -2.1046150000 0.3207670000
H -0.1101410000 -0.7585840000 1.4325510000
C 1.4005900000 -0.5051110000 -0.0927950000
H 1.5661020000 -0.8426030000 -1.1220800000
H 2.1753610000 -0.9822630000 0.5157330000
C 1.5793900000 1.0129000000 -0.0280740000
H 1.3793580000 1.3888510000 0.9792210000
H 2.6000470000 1.2954000000 -0.2953470000
H 0.9051220000 1.5258400000 -0.7170610000
