7
0 1
N -0.9956370000 0.6802090000 -0.1559580000
H -1.0274530000 1.3176810000 0.6337210000
Br 0.7697770000 -0.0602640000 0.0045310000
C -2.0118370000 -0.3577260000 0.0251270000
H -2.9801120000 0.1476920000 -0.0092340000
H -1.9613370000 -1.0579180000 -0.8061240000
H -1.9328280000 -0.9133160000 0.9639760000
