14
0 1
N -0.0008110000 3.8471100000 0.0000000000
H -0.4725730000 4.2071990000 0.8177970000
H -0.4725730000 4.2071990000 -0.8177970000
H 0.9444850000 4.2047030000 0.0000000000
Br 0.0001530000 1.1842260000 0.0000000000
C -1.1480360000 -1.4525750000 0.0000000000
N 0.0000000000 -0.6661470000 0.0000000000
O -2.2821860000 -1.0629910000 0.0000000000
O 2.2821890000 -1.0628690000 0.0000000000
C 1.1480590000 -1.4525280000 0.0000000000
C 0.6616200000 -2.8738900000 0.0000000000
C -0.6615120000 -2.8739190000 0.0000000000
H -1.3498910000 -3.7047310000 0.0000000000
H 1.3500460000 -3.7046630000 0.0000000000
