13
0 1
P 0.0000000000 0.0000000000 3.8880920000
C 0.0000000000 0.0000000000 5.4119970000
H 0.0000000000 0.0000000000 6.4835420000
N 0.0000000000 0.0000000000 -1.3444900000
O 0.0000000000 2.2843070000 -1.7326040000
O 0.0000000000 -2.2843070000 -1.7326040000
C 0.0000000000 -1.1559280000 -2.1294210000
C 0.0000000000 -0.6618820000 -3.5460520000
C 0.0000000000 0.6618820000 -3.5460520000
H 0.0000000000 1.3479640000 -4.3786470000
H 0.0000000000 -1.3479640000 -4.3786470000
C 0.0000000000 1.1559280000 -2.1294210000
Br 0.0000000000 0.0000000000 0.4776900000
