13
0 1
Br 0.0000000000 0.0000000000 3.0858490000
Br 0.0000000000 0.0000000000 0.7651380000
C 0.0000000000 1.1429490000 -2.4911990000
C 0.0000000000 1.1928010000 -3.8750670000
C 0.0000000000 0.0000000000 -4.5789970000
C 0.0000000000 -1.1928010000 -3.8750670000
C 0.0000000000 -1.1429490000 -2.4911990000
N 0.0000000000 0.0000000000 -1.8130800000
H 0.0000000000 2.0504430000 -1.8976510000
H 0.0000000000 2.1470230000 -4.3834900000
H 0.0000000000 0.0000000000 -5.6615080000
H 0.0000000000 -2.1470230000 -4.3834900000
H 0.0000000000 -2.0504430000 -1.8976510000
