14
0 1
C -0.4041959742 0.4147856104 -0.1988156046
C 0.8917419226 0.3180327331 -0.9971767957
N -0.2857681941 1.0211460797 1.1243754583
H 0.6089006987 0.7594141105 1.5323080787
H -0.3248332571 2.0307565702 1.0747326615
H -1.1233801629 1.0014885910 -0.7780799094
C -1.0332289776 -0.9775131440 -0.0612602909
O -0.9821979850 -1.8114076587 -0.9364376397
O -1.6596159468 -1.1736466922 1.1031917325
H -1.4790265188 -0.3516122347 1.6142493230
H 0.7077798260 -0.1542213720 -1.9589778080
H 1.2996741884 1.3146714074 -1.1651168087
S 2.1835701445 -0.5979416810 -0.1115465989
H 1.6005802364 -1.7939523198 -0.2414457979
