14
0 1
C 0.1777265060 -0.3206775362 -0.4591564789
C -0.7204497099 -1.1857126164 0.4040725195
N 1.5464363713 -0.8397872405 -0.3968063910
H 1.9226544330 -0.7094175818 0.5370335484
H 2.1482100807 -0.3329508808 -1.0364737502
H -0.1560064100 -0.3602333528 -1.4950996476
C 0.1381044417 1.1210438984 0.0090354609
O -0.0274597614 1.4810232738 1.1555381055
O 0.4005427249 1.9799092433 -1.0021550681
H 0.4260011177 2.8662358743 -0.6064782925
H -0.6638581866 -2.2109330832 0.0424610875
H -0.3858187485 -1.1658301744 1.4403754599
S -2.4653525381 -0.7063849572 0.3234306275
H -2.3407303207 0.3837151334 1.0842228190
