14
0 1
C -0.2051355681 0.2357788679 -0.5070903621
C 0.8704610187 -0.8453868169 -0.6248322386
N 0.3996498476 1.5406435133 -0.2984961088
H 0.5036853411 2.0384308475 -1.1720545881
H -0.1838563205 2.0931266939 0.3201553215
H -0.8216315643 0.1890378620 -1.4144007482
C -1.1437047165 -0.0628811138 0.6422563137
O -1.4715331049 0.7299749621 1.4951788821
O -1.6142086209 -1.3262089995 0.5781802350
H -2.1967789074 -1.4354973336 1.3462802844
H 0.4172433229 -1.8147163699 -0.8238077912
H 1.5363164532 -0.5944084747 -1.4496979000
S 1.8199116488 -1.0271974853 0.9054708735
H 2.0895811703 0.2793038470 1.0028578268
