14
0 1
C -0.2809447688 0.5825353218 -0.2183602422
C 1.0144019101 0.3965644844 -0.9955688337
N -0.0418365171 1.3739322604 0.9748052489
H 0.6403508607 0.8937168535 1.5540034013
H -0.8906646773 1.4562137286 1.5207649922
H -0.9730396034 1.1405363391 -0.8596920648
C -0.9493042010 -0.7695247287 -0.0013943366
O -0.7780409922 -1.7544078476 -0.6869564997
O -1.8126084219 -0.7458812390 1.0402795726
H -2.2158121295 -1.6282714320 1.0712494308
H 0.8352398900 -0.1198042831 -1.9344841646
H 1.4371470579 1.3783912822 -1.2001666561
S 2.2865091579 -0.4996905959 -0.0590025680
H 1.7286024348 -1.7043101437 -0.2054772801
