14
0 1
C -0.2335309742 0.0102095645 -0.3746593786
C 0.9279960699 -0.9143513901 -0.0367512386
N -0.1712948763 1.3489294438 0.2095572787
H 0.2165707410 1.3154994620 1.1470196584
H 0.4217317931 1.9562214714 -0.3416712333
H -0.2736703515 0.1298465145 -1.4599841581
C -1.5576318303 -0.6583203951 0.0194163714
O -1.7512682389 -1.8463124646 -0.0841329829
O -2.4892037479 0.1993855224 0.4592461642
H -2.0386582171 1.0722365870 0.4599096201
H 1.0036380574 -1.0577543766 1.0419838823
H 0.7505808849 -1.8912839337 -0.4832464893
S 2.5143434619 -0.3445089744 -0.6979833312
H 2.6803972280 0.6802029689 0.1412958369
