7
0 2
C 0.7946072080 0.0000060000 -0.0223949912
C -0.6953706056 0.0001700003 -0.0004600000
H -1.1033979858 0.8895945173 -0.4810559520
H 1.3484758274 -0.9240492455 0.0484850153
H -1.0860409733 -0.0133270105 1.0246458333
H -1.1038266193 -0.8767196358 -0.5035740298
H 1.3493860122 0.9234459835 0.0486330261
