10
0 1
C 0.0000000000 -0.5979708900 1.4774286400
C 0.0000000000 0.4213119600 2.3395784800
H 0.9211335100 -1.0295710200 1.1065351600
H -0.9211335100 -1.0295710200 1.1065351600
H -0.9239381500 0.8512482600 2.7069463300
H 0.9239381500 0.8512482600 2.7069463300
O 0.0000000000 -0.5187733400 -1.8284567900
C 0.0000000000 0.6861622000 -1.7370941200
H 0.0000000000 1.3307747400 -2.6318635500
H 0.0000000000 1.1890280700 -0.7564549800
