13
0 1
C 0.0000000000 -0.0637442100 2.4205409000
H 0.0000000000 1.0216939600 2.3423803800
H 0.8882830700 -0.4613191100 1.9330719400
H -0.8882830700 -0.4613191100 1.9330719400
H 0.0000000000 -0.3536360600 3.4694519500
C 0.0000000000 0.7813357200 -1.1354391200
H 0.0000000000 1.3746534900 -2.0511444200
H -0.8804300200 1.0631055400 -0.5558091800
C 0.0000000000 -0.7133289000 -1.4472368600
H 0.8804300200 1.0631055400 -0.5558091800
H 0.0000000000 -1.3064181200 -0.5314069300
H -0.8810034300 -0.9953307200 -2.0258715400
H 0.8810034300 -0.9953307200 -2.0258715400
