7
0 1
N 2.2157663980 -0.3178557715 0.0000000000
S -0.3396605471 -0.3819806270 0.0000000000
H 2.5084767620 0.2094901191 -0.8163126362
H 2.5084767620 0.2094901191 0.8163126362
H 2.7360591310 -1.1892136176 0.0000000000
F -1.9651130568 -0.2197698111 0.0000000000
F -0.0615654490 1.2156395891 0.0000000000
