8
0 1
C 0.0000000000 0.0000000000 0.0000000000
C 0.0000000000 0.0000000000 1.5014674667
O 0.9728868134 0.0000000000 -0.7098609628
O -1.2604478998 -0.0000000000 -0.4944223789
H -1.1673844130 -0.0000000000 -1.4556020533
H 1.0230418531 0.0000000000 1.8630682069
H -0.5297869952 0.8795852301 1.8657207176
H -0.5297869952 -0.8795852301 1.8657207176
