8
0 1
F 0.0000000000 0.0000000000 0.0000000000
C 0.0000000000 0.0000000000 1.3907582826
C 1.4214454690 0.0000000000 1.8991361686
H 1.4241762080 0.0000000000 2.9904251339
H -0.5437296385 0.8879741093 1.7163186243
H -0.5437296385 -0.8879741093 1.7163186243
H 1.9515040744 0.8857451101 1.5505291637
H 1.9515040744 -0.8857451101 1.5505291637
