8
0 1
C 0.0000000000 0.0000000000 0.0000000000
C 0.0000000000 0.0000000000 1.5265164900
H 1.0169282244 0.0000000000 -0.3945846211
H -0.5084641122 -0.8806856762 -0.3945846211
H -0.5084641122 0.8806856762 -0.3945846211
H -1.0169282244 0.0000000000 1.9211011111
H 0.5084641122 -0.8806856762 1.9211011111
H 0.5084641122 0.8806856762 1.9211011111
