12
0 1
O 3.2115230000 12.0953080000 13.0921980000
H 4.0657260000 12.5925870000 13.0732400000
C 3.4258960000 10.8402260000 13.7515010000
H 4.0538110000 10.1924980000 13.1352470000
H 2.4563810000 10.3634990000 13.8834140000
H 3.8944020000 10.9682940000 14.7292650000
O 0.9290230000 13.5036920000 13.2378020000
H 1.7832260000 13.0064130000 13.2567600000
C 1.1433960000 14.7587740000 12.5784990000
H 1.7713110000 15.4065020000 13.1947530000
H 0.1738810000 15.2355010000 12.4465860000
H 1.6119020000 14.6307060000 11.6007350000
