12
0 1
O 3.2115230000 12.0953080000 13.0921980000
H 4.0657260000 12.5925870000 13.0732400000
C 3.4258960000 10.8402260000 13.7515010000
H 4.0538110000 10.1924980000 13.1352470000
H 2.4563810000 10.3634990000 13.8834140000
H 3.8944020000 10.9682940000 14.7292650000
O 7.7765230000 12.0953080000 13.0921980000
H 8.6307260000 12.5925870000 13.0732400000
C 7.9908960000 10.8402260000 13.7515010000
H 8.6188110000 10.1924980000 13.1352470000
H 7.0213810000 10.3634990000 13.8834140000
H 8.4594020000 10.9682940000 14.7292650000
