10
0 1
O 7.7765230000 12.0953080000 13.0921980000
H 8.6307260000 12.5925870000 13.0732400000
C 7.9908960000 10.8402260000 13.7515010000
H 8.6188110000 10.1924980000 13.1352470000
H 7.0213810000 10.3634990000 13.8834140000
H 8.4594020000 10.9682940000 14.7292650000
C 5.3442910000 11.2318900000 17.3498900000
H 4.6932310000 10.6041300000 17.9226990000
C 6.0789820000 11.9508570000 16.7306090000
H 6.7196800000 12.6020950000 16.1820230000
