12
0 1
C 3.3843340000 0.3747140000 5.8691720000
C 4.1147490000 1.2344630000 6.7838050000
N 4.6883300000 1.9120240000 7.5181480000
H 2.7583300000 0.9796640000 5.2117480000
H 4.0804340000 -0.2126220000 5.2697520000
H 2.7542750000 -0.3045010000 6.4433190000
C 7.4943340000 0.3747140000 5.8691720000
C 8.2247490000 1.2344630000 6.7838050000
N 8.7983300000 1.9120240000 7.5181480000
H 6.8683300000 0.9796640000 5.2117480000
H 8.1904340000 -0.2126220000 5.2697520000
H 6.8642750000 -0.3045010000 6.4433190000
