14
0 1
C 5.8763160000 12.8516500000 11.6790050000
N 7.0536220000 11.9360590000 11.6861510000
O 7.8450610000 12.0085330000 12.6214960000
O 7.1593960000 11.1353530000 10.7701170000
H 5.6622270000 13.0910260000 10.6455750000
H 5.0488940000 12.2957470000 12.1159250000
H 6.1118710000 13.7198410000 12.2797690000
C 3.2838160000 8.9778500000 13.8419950000
N 4.4611220000 9.8934410000 13.8348490000
O 5.2525610000 9.8209670000 12.8995040000
O 4.5668960000 10.6941470000 14.7508830000
H 3.0697270000 8.7384740000 14.8754250000
H 2.4563940000 9.5337530000 13.4050750000
H 3.5193710000 8.1096590000 13.2412310000
