21
0 1
C 3.2838160000 2.7408500000 5.3349950000
N 4.4611220000 3.6564410000 5.3278490000
O 5.2525610000 3.5839670000 4.3925040000
O 4.5668960000 4.4571470000 6.2438830000
H 3.0697270000 2.5014740000 6.3684250000
H 2.4563940000 3.2967530000 4.8980750000
H 3.5193710000 1.8726590000 4.7342310000
C 4.4936840000 3.4961500000 9.5884950000
N 3.3163780000 2.5805590000 9.5813490000
O 2.5249390000 2.6530330000 8.6460040000
O 3.2106040000 1.7798530000 10.4973830000
H 4.7077730000 3.7355260000 10.6219250000
H 5.3211060000 2.9402470000 9.1515750000
H 4.2581290000 4.3643410000 8.9877310000
C 7.0861840000 -0.3776500000 7.4255050000
N 5.9088780000 0.5379410000 7.4326510000
O 5.1174390000 0.4654670000 8.3679960000
O 5.8031040000 1.3386470000 6.5166170000
H 7.3002730000 -0.6170260000 6.3920750000
H 7.9136060000 0.1782530000 7.8624250000
H 6.8506290000 -1.2458410000 8.0262690000
