8
0 1
O 1.6555790000 1.5395030000 2.9118270000
H 2.3466640000 1.7692340000 2.2202140000
O 3.3306220000 0.4132100000 3.8547200000
C 2.1643920000 0.7953100000 3.8790360000
C 1.1895080000 0.4731530000 4.9670740000
H 1.6831960000 -0.0852470000 5.7554310000
H 0.3686230000 -0.1151400000 4.5566470000
H 0.7598650000 1.3907820000 5.3644800000
