8
0 1
O 4.9199210000 3.5010030000 0.0308270000
H 4.2288360000 3.7307340000 -0.6607860000
O 3.2448780000 2.3747100000 0.9737200000
C 4.4111080000 2.7568100000 0.9980360000
C 5.3859920000 2.4346530000 2.0860740000
H 4.8923040000 1.8762530000 2.8744310000
H 6.2068770000 1.8463600000 1.6756470000
H 5.8156350000 3.3522820000 2.4834800000
