16
0 1
O 1.0698440000 17.8870530000 8.0342050000
C 0.2686850000 17.4018900000 8.9671500000
O -0.1145100000 16.2364060000 8.9473820000
C -0.1380720000 18.4131240000 9.9922930000
H 1.3191780000 17.1913580000 7.3549820000
H -0.9281570000 19.0316930000 9.5623430000
H 0.6930860000 19.0716890000 10.2323300000
H -0.5251790000 17.9244440000 10.8801820000
O 3.1985000000 14.6829470000 5.2181890000
C 2.3973410000 15.1681100000 6.1511350000
O 2.0141450000 16.3335940000 6.1313670000
C 1.9905840000 14.1568760000 7.1762770000
H 3.4478340000 15.3786420000 4.5389660000
H 1.2004990000 13.5383070000 6.7463280000
H 2.8217420000 13.4983110000 7.4163140000
H 1.6034760000 14.6455560000 8.0641670000
