8
0 1
C -1.9530030000 3.0176050000 2.4417500000
H -3.4535910000 2.3711730000 1.4887120000
O -2.5847870000 3.6371500000 3.2778470000
O -2.4544200000 2.3332790000 1.4510360000
C -0.4154750000 2.9973950000 2.4511440000
O 0.2163080000 2.3778500000 1.6150460000
O 0.0859420000 3.6817210000 3.4418570000
H 1.0851120000 3.6438270000 3.4041820000
