16
0 1
O -1.0619670000 -1.3936980000 11.7183720000
O -0.2192810000 -0.2726460000 13.4810000000
C -0.3936300000 -0.5081790000 12.2087540000
H -0.6885400000 -0.9147090000 14.0734640000
O 1.0619670000 1.3936980000 11.8388280000
O 0.2192810000 0.2726460000 10.0762000000
C 0.3936300000 0.5081790000 11.3484460000
H 0.6885400000 0.9147090000 9.4837360000
O 1.0619670000 1.6533020000 7.9126280000
O 0.2192810000 2.7743540000 6.1500000000
C 0.3936300000 2.5388210000 7.4222460000
H 0.6885400000 2.1322910000 5.5575360000
O -1.0619670000 4.4406980000 7.7921720000
O -0.2192810000 3.3196460000 9.5548000000
C -0.3936300000 3.5551790000 8.2825540000
H -0.6885400000 3.9617090000 10.1472640000
