16
0 1
O 17.4604670000 7.4876980000 15.6445720000
O 16.6177810000 6.3666460000 17.4072000000
C 16.7921300000 6.6021790000 16.1349540000
H 17.0870400000 7.0087090000 17.9996640000
O 15.3365330000 4.7003020000 15.7650280000
O 16.1792190000 5.8213540000 14.0024000000
C 16.0048700000 5.5858210000 15.2746460000
H 15.7099600000 5.1792910000 13.4099360000
O 15.3365330000 10.5346980000 11.8388280000
O 16.1792190000 9.4136460000 10.0762000000
C 16.0048700000 9.6491790000 11.3484460000
H 15.7099600000 10.0557090000 9.4837360000
O 17.4604670000 7.7473020000 11.7183720000
O 16.6177810000 8.8683540000 13.4810000000
C 16.7921300000 8.6328210000 12.2087540000
H 17.0870400000 8.2262910000 14.0734640000
