8
0 1
C 10.2444260000 11.0657900000 6.2842420000
C 10.8630890000 11.6619700000 7.2898860000
C 10.3306300000 13.2288560000 5.8148890000
H 9.9827570000 10.0492970000 6.0621010000
H 11.2886270000 11.3272180000 8.2149700000
O 9.9081040000 12.0344910000 5.3377770000
O 10.9437800000 13.0265070000 7.0061070000
O 10.1811750000 14.2922960000 5.2829040000
