24
0 1
C 6.6144260000 15.3092110000 6.2842420000
C 7.2330890000 14.7130300000 7.2898860000
C 6.7006300000 13.1461440000 5.8148890000
H 6.3527570000 16.3257030000 6.0621010000
H 7.6586270000 15.0477820000 8.2149700000
O 6.2781040000 14.3405100000 5.3377770000
O 7.3137800000 13.3484930000 7.0061070000
O 6.5511750000 12.0827040000 5.2829040000
C 7.0610720000 10.0342110000 7.9070660000
C 6.4424080000 9.4380300000 6.9014220000
C 6.9748680000 7.8711440000 8.3764200000
H 7.3227400000 11.0507030000 8.1292070000
H 6.0168710000 9.7727820000 5.9763380000
O 7.3973940000 9.0655100000 8.8535310000
O 6.3617180000 8.0734930000 7.1852010000
O 7.1243230000 6.8077040000 8.9084050000
C 10.2444260000 11.0657900000 6.2842420000
C 10.8630890000 11.6619700000 7.2898860000
C 10.3306300000 13.2288560000 5.8148890000
H 9.9827570000 10.0492970000 6.0621010000
H 11.2886270000 11.3272180000 8.2149700000
O 9.9081040000 12.0344910000 5.3377770000
O 10.9437800000 13.0265070000 7.0061070000
O 10.1811750000 14.2922960000 5.2829040000
