16
0 1
C 1.2925720000 10.0342110000 3.1766300000
C 0.6739090000 9.4380300000 2.1709860000
C 1.2063680000 7.8711440000 3.6459840000
H 1.5542410000 11.0507030000 3.3987710000
H 0.2483720000 9.7727820000 1.2459020000
O 1.6288950000 9.0655100000 4.1230950000
O 0.5932190000 8.0734930000 2.4547650000
O 1.3558240000 6.8077040000 4.1779680000
C 2.9844260000 11.0657900000 6.2842420000
C 3.6030890000 11.6619700000 7.2898860000
C 3.0706300000 13.2288560000 5.8148890000
H 2.7227570000 10.0492970000 6.0621010000
H 4.0286270000 11.3272180000 8.2149700000
O 2.6481040000 12.0344910000 5.3377770000
O 3.6837800000 13.0265070000 7.0061070000
O 2.9211750000 14.2922960000 5.2829040000
