18
0 1
C -1.2452160000 8.5142140000 17.6612240000
C -1.9294490000 9.8606360000 17.6887690000
O -1.3992080000 10.8558730000 17.1514310000
N -3.0876130000 9.9366720000 18.3431670000
H -3.5109780000 10.8427360000 18.5536940000
H -3.4941430000 9.0993140000 18.7659390000
H -0.6376910000 8.4291210000 18.5644370000
H -1.9513990000 7.6865760000 17.6531020000
H -0.5895400000 8.4431210000 16.7984480000
C 3.4958660000 10.0911000000 15.5125570000
C 1.9877140000 10.0104530000 15.5401030000
O 1.3909340000 9.0536320000 15.0027640000
N 1.3427830000 10.9754340000 16.1945010000
H 0.3464260000 10.8890470000 16.4050270000
H 1.8646920000 11.7461780000 16.6172720000
H 3.8733210000 9.6075150000 16.4157700000
H 3.8595310000 11.1164920000 15.5044350000
H 3.8852730000 9.5588140000 14.6497810000
