18
0 1
N 1.2251560000 1.7900980000 0.7936670000
C 0.3145680000 1.1916810000 1.5903270000
N 0.0989730000 1.8928030000 2.6927890000
C 0.9182810000 2.9955700000 2.5928210000
C 1.6227580000 2.9432510000 1.4227170000
H 1.6191510000 1.4103460000 -0.0932120000
H -0.1654620000 0.2582120000 1.3537910000
H 0.9672520000 3.7445560000 3.3608340000
H 2.3577810000 3.6100840000 1.0122440000
N 1.5880370000 3.5759020000 7.7578550000
C 2.4986250000 4.1743190000 6.9611950000
N 2.7142200000 3.4731970000 5.8587330000
C 1.8949120000 2.3704310000 5.9587000000
C 1.1904350000 2.4227490000 7.1288050000
H 1.1940420000 3.9556540000 8.6447330000
H 2.9786550000 5.1077880000 7.1977300000
H 1.8459410000 1.6214440000 5.1906880000
H 0.4554120000 1.7559160000 7.5392780000
