27
0 1
O 0.4923540000 17.0733640000 2.5374380000
N 1.7984730000 16.6941230000 2.8769010000
C 2.4714000000 17.8190280000 3.0176890000
O 3.7487820000 17.8521130000 3.3720320000
C 1.6567260000 18.9547470000 2.7520560000
C 0.4524230000 18.4161670000 2.4665130000
H 4.0545620000 16.9382980000 3.6669280000
H 1.9339910000 19.9926520000 2.7900340000
H -0.5035370000 18.8324990000 2.2086740000
O 0.4478320000 18.9761360000 6.0801580000
N 1.7539520000 19.3553770000 6.4196220000
C 2.4268790000 18.2304720000 6.5604090000
O 3.7042610000 18.1973870000 6.9147520000
C 1.6122040000 17.0947530000 6.2947760000
C 0.4079010000 17.6333330000 6.0092330000
H 4.0100410000 19.1112020000 7.2096480000
H 1.8894690000 16.0568480000 6.3327540000
H -0.5480590000 17.2170010000 5.7513940000
O 5.6797030000 14.9706360000 4.5480030000
N 4.3735840000 15.3498770000 4.2085390000
C 3.7006570000 14.2249720000 4.0677510000
O 2.4232750000 14.1918870000 3.7134090000
C 4.5153310000 13.0892530000 4.3333850000
C 5.7196340000 13.6278330000 4.6189280000
H 2.1174950000 15.1057020000 3.4185120000
H 4.2380660000 12.0513480000 4.2954070000
H 6.6755950000 13.2115010000 4.8767670000
