9
0 1
C 5.9223530000 2.3489210000 6.2619770000
C 5.0488070000 1.3772530000 6.7738130000
C 5.8018780000 0.6782410000 7.6957540000
H 7.8376660000 1.0373770000 8.3137220000
H 5.5545400000 -0.1416150000 8.3456230000
H 4.0200610000 1.2105880000 6.5142710000
H 5.7223530000 3.1023130000 5.5204690000
N 7.0335720000 1.2292180000 7.6963630000
N 7.1274290000 2.2567770000 6.8269130000
