18
0 1
C 1.3000300000 5.5696980000 6.6742500000
N 0.6838760000 4.3851900000 6.6742500000
H 2.3821340000 5.5696980000 6.6742500000
C -0.6500150000 6.6955570000 6.6742500000
N 0.6838760000 6.7542060000 6.6742500000
H -1.1910670000 7.6326860000 6.6742500000
C -0.6500150000 4.4438390000 6.6742500000
N -1.3677520000 5.5696980000 6.6742500000
H -1.1910670000 3.5067100000 6.6742500000
C 0.6500150000 10.0135370000 7.8877500000
N 1.3677520000 11.1393960000 7.8877500000
H 1.1910670000 9.0764080000 7.8877500000
C -1.3000300000 11.1393960000 7.8877500000
N -0.6838760000 9.9548880000 7.8877500000
H -2.3821340000 11.1393960000 7.8877500000
C 0.6500150000 12.2652550000 7.8877500000
N -0.6838760000 12.3239040000 7.8877500000
H 1.1910670000 13.2023840000 7.8877500000
