18
0 1
C -4.1734850000 12.7983860000 10.3147500000
N -3.4557480000 13.9242450000 10.3147500000
H -3.6324330000 11.8612570000 10.3147500000
C -6.1235300000 13.9242450000 10.3147500000
N -5.5073760000 12.7397370000 10.3147500000
H -7.2056340000 13.9242450000 10.3147500000
C -4.1734850000 15.0501040000 10.3147500000
N -5.5073760000 15.1087530000 10.3147500000
H -3.6324330000 15.9872330000 10.3147500000
C 0.6500150000 10.0135370000 7.8877500000
N 1.3677520000 11.1393960000 7.8877500000
H 1.1910670000 9.0764080000 7.8877500000
C -1.3000300000 11.1393960000 7.8877500000
N -0.6838760000 9.9548880000 7.8877500000
H -2.3821340000 11.1393960000 7.8877500000
C 0.6500150000 12.2652550000 7.8877500000
N -0.6838760000 12.3239040000 7.8877500000
H 1.1910670000 13.2023840000 7.8877500000
