20
0 1
C 1.5482770000 23.6634890000 4.2086420000
C 1.4212150000 21.1914170000 4.1536430000
C 2.0612080000 22.3331030000 4.7772500000
H 1.9089710000 22.2687120000 5.8550940000
H 3.1391420000 22.2517670000 4.6194440000
H 1.7370340000 25.6695060000 4.4638240000
H 2.6738960000 24.6827650000 5.5895460000
N 2.0570570000 24.7544760000 4.7881790000
N 0.9163360000 20.2835720000 3.6611170000
O 0.7558810000 23.6899230000 3.2636420000
C 2.9143490000 23.7825110000 0.6830480000
C 2.7872870000 26.2545830000 0.6280490000
C 3.4272800000 25.1128970000 1.2516560000
H 3.2750430000 25.1772880000 2.3295010000
H 4.5052140000 25.1942330000 1.0938510000
H 3.1031050000 21.7764940000 0.9382310000
H 4.0399680000 22.7632350000 2.0639530000
N 3.4231290000 22.6915240000 1.2625850000
N 2.2824080000 27.1624280000 0.1355240000
O 2.1219530000 23.7560770000 -0.2619520000
