20
0 1
C 2.7125080000 3.3294890000 6.3681380000
C 2.8395690000 0.8574170000 6.4231380000
C 2.1995760000 1.9991030000 5.7995310000
H 2.3518140000 1.9347120000 4.7216860000
H 1.1216420000 1.9177670000 5.9573360000
H 2.5237510000 5.3355060000 6.1129560000
H 1.5868880000 4.3487650000 4.9872340000
N 2.2037270000 4.4204760000 5.7886010000
N 3.3444480000 -0.0504280000 6.9156630000
O 3.5049030000 3.3559230000 7.3131380000
C 5.6756960000 2.5807910000 9.9220770000
C 5.2946880000 1.4281250000 9.1310050000
C 5.7301660000 0.1102100000 9.7838740000
H 4.2203140000 1.4618790000 8.9545140000
H 5.7805910000 1.5081050000 8.1550500000
H 5.5080590000 -1.8951290000 9.5798130000
H 4.5593080000 -0.9260100000 8.4552190000
N 5.9837030000 3.4954150000 10.5464600000
N 5.1602000000 -0.9851150000 9.2699130000
O 6.5546060000 0.0928590000 10.7001050000
