20
0 1
N 3.1876010000 4.3764650000 -1.4966410000
C 2.3745740000 4.8771510000 -0.8223150000
N 1.4470540000 5.4873700000 -0.1583730000
C 1.1855370000 5.1569560000 1.1167570000
N 1.8670650000 4.2291090000 1.7979290000
N 0.2066460000 5.8176070000 1.7330210000
H 1.5404970000 3.9573100000 2.7177220000
H 2.6110690000 3.6853350000 1.3775660000
H -0.0077850000 5.5870820000 2.6969520000
H -0.3468430000 6.4943600000 1.2079810000
N 1.4208310000 6.5883650000 7.3972930000
C 2.2338570000 7.0890510000 6.7229670000
N 3.1613780000 7.6992700000 6.0590250000
C 3.4228940000 7.3688560000 4.7838940000
N 2.7413660000 6.4410090000 4.1027230000
N 4.4017850000 8.0295070000 4.1676300000
H 3.0679350000 6.1692100000 3.1829300000
H 1.9973630000 5.8972350000 4.5230860000
H 4.6162160000 7.7989820000 3.2037000000
H 4.9552740000 8.7062600000 4.6926700000
