20
0 1
N -1.4100870000 2.2592350000 13.2979450000
C -0.5970610000 1.7585490000 12.6236180000
N 0.3304590000 1.1483300000 11.9596770000
C 0.5919760000 1.4787440000 10.6845460000
N -0.0895520000 2.4065910000 10.0033750000
N 1.5708670000 0.8180930000 10.0682820000
H 0.2370170000 2.6783900000 9.0835810000
H -0.8335550000 2.9503650000 10.4237370000
H 1.7852980000 1.0486180000 9.1043520000
H 2.1243560000 0.1413400000 10.5933220000
N -1.4100870000 6.6830350000 13.2979450000
C -0.5970610000 6.1823490000 12.6236180000
N 0.3304590000 5.5721300000 11.9596770000
C 0.5919760000 5.9025440000 10.6845460000
N -0.0895520000 6.8303910000 10.0033750000
N 1.5708670000 5.2418930000 10.0682820000
H 0.2370170000 7.1021900000 9.0835810000
H -0.8335550000 7.3741650000 10.4237370000
H 1.7852980000 5.4724180000 9.1043520000
H 2.1243560000 4.5651400000 10.5933220000
