22
0 1
N 7.8850480000 10.5114450000 5.3704380000
O 6.8757080000 12.0063940000 4.0872220000
O 7.5511570000 12.6752410000 6.1257430000
C 7.4917170000 9.7197210000 4.2119850000
C 7.0513510000 10.8319130000 3.2448810000
C 7.4655550000 11.7827640000 5.2901260000
H 8.2879930000 10.1307300000 6.2300550000
H 6.6875190000 9.0287500000 4.4601120000
H 8.3307200000 9.1495850000 3.8170560000
H 7.8135680000 11.0713700000 2.5049840000
H 6.1078020000 10.6312020000 2.7507760000
N 6.1122810000 9.3440550000 10.0397340000
O 5.1029410000 7.8491060000 8.7565180000
O 5.7783900000 7.1802590000 10.7950400000
C 5.7189500000 10.1357790000 8.8812820000
C 5.2785840000 9.0235870000 7.9141770000
C 5.6927880000 8.0727360000 9.9594220000
H 6.5152260000 9.7247700000 10.8993520000
H 4.9147530000 10.8267500000 9.1294080000
H 6.5579530000 10.7059150000 8.4863530000
H 6.0408010000 8.7841300000 7.1742800000
H 4.3350350000 9.2242980000 7.4200720000
