11
0 1
N 6.1122810000 9.3440550000 10.0397340000
O 5.1029410000 7.8491060000 8.7565180000
O 5.7783900000 7.1802590000 10.7950400000
C 5.7189500000 10.1357790000 8.8812820000
C 5.2785840000 9.0235870000 7.9141770000
C 5.6927880000 8.0727360000 9.9594220000
H 6.5152260000 9.7247700000 10.8993520000
H 4.9147530000 10.8267500000 9.1294080000
H 6.5579530000 10.7059150000 8.4863530000
H 6.0408010000 8.7841300000 7.1742800000
H 4.3350350000 9.2242980000 7.4200720000
