22
0 1
O 11.0054510000 2.2670900000 13.2883450000
O 10.1418390000 1.7143760000 15.2828480000
O 11.3874210000 3.0668130000 11.2327180000
C 10.0306830000 2.3478560000 14.2750170000
C 8.9418740000 3.2892200000 13.8363390000
C 9.3691340000 3.7622220000 12.4484860000
C 10.6701850000 3.0490990000 12.1908270000
H 7.9941060000 2.7533070000 13.8289340000
H 8.8492800000 4.0846560000 14.5722890000
H 9.5416390000 4.8357370000 12.3853640000
H 8.6599010000 3.4974280000 11.6656360000
O 8.0467990000 4.7622100000 7.4110950000
O 8.9104110000 5.3149240000 9.4055980000
O 7.6648290000 3.9624870000 5.3554680000
C 9.0215670000 4.6814440000 8.3977670000
C 10.1103760000 3.7400800000 7.9590890000
C 9.6831160000 3.2670780000 6.5712360000
C 8.3820650000 3.9802010000 6.3135770000
H 11.0581440000 4.2759930000 7.9516840000
H 10.2029700000 2.9446440000 8.6950390000
H 9.5106110000 2.1935630000 6.5081140000
H 10.3923490000 3.5318720000 5.7883860000
