11
0 1
O 8.0467990000 4.7622100000 7.4110950000
O 8.9104110000 5.3149240000 9.4055980000
O 7.6648290000 3.9624870000 5.3554680000
C 9.0215670000 4.6814440000 8.3977670000
C 10.1103760000 3.7400800000 7.9590890000
C 9.6831160000 3.2670780000 6.5712360000
C 8.3820650000 3.9802010000 6.3135770000
H 11.0581440000 4.2759930000 7.9516840000
H 10.2029700000 2.9446440000 8.6950390000
H 9.5106110000 2.1935630000 6.5081140000
H 10.3923490000 3.5318720000 5.7883860000
