12
0 1
C -0.5384670000 20.0254110000 6.6794360000
C -1.0045600000 19.0925080000 7.6018090000
C 0.4635180000 19.6753030000 5.7783660000
H -0.9635180000 21.0203510000 6.6594720000
H -1.7858180000 19.3527460000 8.3037050000
H 0.8066340000 20.3980100000 5.0525530000
C 0.5384670000 17.4593890000 6.7193640000
C 1.0045600000 18.3922920000 5.7969910000
C -0.4635180000 17.8094970000 7.6204340000
H 0.9635180000 16.4644490000 6.7393280000
H 1.7858180000 18.1320540000 5.0950950000
H -0.8066340000 17.0867900000 8.3462470000
