12
0 1
C 3.5290220000 1.5065830000 10.9669060000
C 2.3228190000 0.6483580000 10.9045940000
H 2.5359580000 -0.4119680000 10.8391070000
C 1.0392330000 1.0236170000 10.8970620000
H 0.3041490000 0.2335660000 10.8187510000
C 0.4057180000 2.3668250000 11.0007080000
O 4.6292180000 0.8067920000 11.0623980000
H 5.4535730000 1.3860690000 11.0647630000
O 3.5210390000 2.7391600000 10.9090760000
O 1.1149550000 3.4697100000 11.0352570000
H 2.1120950000 3.2968550000 10.9469240000
O -0.8189700000 2.4529500000 11.0746610000
