12
0 1
C 7.7950450000 1.5065830000 4.7418990000
C 6.5888420000 0.6483580000 4.6795870000
H 6.8019800000 -0.4119680000 4.6141000000
C 5.3052560000 1.0236170000 4.6720550000
H 4.5701710000 0.2335660000 4.5937440000
C 4.6717410000 2.3668250000 4.7757010000
O 8.8952400000 0.8067920000 4.8373910000
H 9.7195960000 1.3860690000 4.8397560000
O 7.7870610000 2.7391600000 4.6840690000
O 5.3809780000 3.4697100000 4.8102500000
H 6.3781180000 3.2968550000 4.7219170000
O 3.4470530000 2.4529500000 4.8496540000
