24
0 1
C 11.8572680000 2.5906680000 3.1650340000
C 12.1427260000 0.1530910000 3.2459850000
C 13.5504720000 0.3535820000 3.3933640000
C 14.0266840000 1.6060340000 3.4156950000
H 14.9589390000 1.8118460000 3.4876760000
H 13.5212400000 3.4702300000 3.2668730000
H 10.5304440000 1.1720070000 3.0360340000
H 14.0970990000 -0.3985070000 3.4456480000
N 13.2177870000 2.6917800000 3.3037570000
N 11.3912940000 1.2955200000 3.1491330000
O 11.1160650000 3.5490660000 3.0682450000
O 11.5744630000 -0.9536950000 3.1979350000
C 9.9801720000 2.5906680000 6.3014330000
C 10.2656300000 0.1530910000 6.3823830000
C 11.6733760000 0.3535820000 6.5297630000
C 12.1495880000 1.6060340000 6.5520940000
H 13.0818430000 1.8118460000 6.6240740000
H 11.6441440000 3.4702300000 6.4032720000
H 8.6533490000 1.1720070000 6.1724330000
H 12.2200030000 -0.3985070000 6.5820470000
N 11.3406910000 2.6917800000 6.4401560000
N 9.5141980000 1.2955200000 6.2855310000
O 9.2389690000 3.5490660000 6.2046440000
O 9.6973670000 -0.9536950000 6.3343340000
