39
0 1
C 4.6315090000 12.9838810000 9.7236230000
C 3.7051610000 13.2808070000 10.6597300000
C 2.8204210000 14.1267870000 11.5665100000
C 2.2363970000 12.7617780000 12.1238960000
C 3.1969160000 12.0598300000 11.1740460000
C 3.8287580000 11.0485510000 10.5407800000
O 4.7205780000 11.6084360000 9.6393230000
H 5.2790900000 13.5271280000 9.0619020000
H 3.3618000000 14.7136480000 12.3078850000
H 2.0982190000 14.7608050000 11.0544200000
H 2.4147590000 12.5950040000 13.1827260000
H 1.1811000000 12.6080980000 11.9094200000
H 3.8105800000 9.9747570000 10.5454260000
C 9.6336530000 11.6286190000 4.8843620000
C 8.7073050000 11.3316930000 5.8204690000
C 7.8225650000 10.4857130000 6.7272500000
C 7.2385410000 11.8507220000 7.2846360000
C 8.1990600000 12.5526700000 6.3347860000
C 8.8309020000 13.5639490000 5.7015200000
O 9.7227230000 13.0040640000 4.8000630000
H 10.2812340000 11.0853720000 4.2226420000
H 8.3639440000 9.8988520000 7.4686240000
H 7.1003630000 9.8516950000 6.2151590000
H 7.4169030000 12.0174960000 8.3434660000
H 6.1832440000 12.0044020000 7.0701600000
H 8.8127240000 14.6377430000 5.7061660000
C 5.0839140000 6.7061190000 9.6334190000
C 6.0102620000 6.4091930000 8.6973130000
C 6.8950020000 5.5632130000 7.7905320000
C 7.4790250000 6.9282220000 7.2331460000
C 6.5185070000 7.6301700000 8.1829960000
C 5.8866650000 8.6414490000 8.8162620000
O 4.9948440000 8.0815640000 9.7177190000
H 4.4363320000 6.1628720000 10.2951400000
H 6.3536230000 4.9763520000 7.0491570000
H 7.6172040000 4.9291950000 8.3026220000
H 7.3006630000 7.0949960000 6.1743160000
H 8.5343230000 7.0819020000 7.4476220000
H 5.9048430000 9.7152430000 8.8116160000
