17
0 1
C -1.7325610000 -0.8257630000 -0.0195730000
H -1.6340220000 -1.8479630000 -0.3886640000
H -1.9105850000 -0.8775240000 1.0575490000
H -2.6198090000 -0.3878610000 -0.4797420000
C -0.4810470000 0.0018020000 -0.3250760000
H -0.3466600000 0.0164020000 -1.4130940000
C 0.7654670000 -0.6588470000 0.2840900000
H 0.7713130000 -1.7140000000 -0.0035790000
H 0.6737360000 -0.6444950000 1.3754670000
C 2.0965880000 -0.0299810000 -0.1259450000
H 2.1881430000 0.9993370000 0.2213660000
H 2.9359480000 -0.5888720000 0.2897760000
H 2.2103690000 -0.0244440000 -1.2121550000
C -0.6662530000 1.4478180000 0.1442870000
H -0.7832050000 1.4893620000 1.2304110000
H 0.1805840000 2.0794360000 -0.1235640000
H -1.5589710000 1.8904440000 -0.3004700000
